$ Spice netlist generated by v2lvs
$ v2021.2_37.20    Tue Jun 1 14:42:15 PDT 2021
*.BUSDELIMITER [ 

.SUBCKT bridge_soc_top clock reset Bridge_Serial_out Serial_in Bridge_Can_out 
+ Can_rx R_byte T_byte 
*.CONNECT soc_can_rx_inst_next_state[2] VSS
*.CONNECT soc_Can_out VDD
*.CONNECT soc_Serial_out VDD
XDIODE_2 ANTENNA $PINS A=tbyte_PAD VSS=VSS VDD=VDD 
XDIODE_1 ANTENNA $PINS A=tbyte_PAD VSS=VSS VDD=VDD 
XFE_DBTC0_n_329 INVX8 $PINS Z=FE_DBTN0_n_329 A=n_329 VSS=VSS VDD=VDD 
Xcorner0 pad_corner $PINS VSS=VSS VDD=VDD 
Xcorner1 pad_corner $PINS VSS=VSS VDD=VDD 
Xcorner2 pad_corner $PINS VSS=VSS VDD=VDD 
Xcorner3 pad_corner $PINS VSS=VSS VDD=VDD 
Xvdd0 pad_vdd $PINS VSS=VSS VDD=VDD 
Xvss0 pad_gnd $PINS VSS=VSS VDD=VDD 
Xcan_rx_pad pad_in $PINS DataIn=can_rx_PAD pad=Can_rx VSS=VSS VDD=VDD 
Xcan_tx_pad pad_out $PINS pad=Bridge_Can_out DataOut=can_tx_PAD VSS=VSS VDD=VDD 
Xclk_pad pad_in $PINS DataIn=clk_PAD pad=clock VSS=VSS VDD=VDD 
Xrbyte_pad pad_in $PINS DataIn=rbyte_PAD pad=R_byte VSS=VSS VDD=VDD 
Xrst_pad pad_in $PINS DataIn=rst_PAD pad=reset VSS=VSS VDD=VDD 
Xser_rx_pad pad_in $PINS DataIn=ser_rx_PAD pad=Serial_in VSS=VSS VDD=VDD 
Xser_tx_pad pad_out $PINS pad=Bridge_Serial_out DataOut=ser_tx_PAD VSS=VSS 
+ VDD=VDD 
Xtbyte_pad pad_in $PINS DataIn=tbyte_PAD pad=T_byte VSS=VSS VDD=VDD 
Xg4310__2398 NAND3X1 $PINS Z=VDD A=n_822 B=n_830 C=n_828 VSS=VSS VDD=VDD 
Xg4311__5107 NAND3X1 $PINS Z=VDD A=n_821 B=n_831 C=n_829 VSS=VSS VDD=VDD 
Xg4312__6260 NOR2X1 $PINS Z=n_822 A=soc_uart_tx_inst_shift_reg[0] B=n_21 
+ VSS=VSS VDD=VDD 
Xg4313__4319 NOR2X1 $PINS Z=n_821 A=soc_can_tx_inst_shift_reg[0] B=n_819 
+ VSS=VSS VDD=VDD 
Xg4314 INVX2 $PINS Z=soc_uart_tx_inst_n_126 A=n_21 VSS=VSS VDD=VDD 
Xg4315__8428 NOR2X1 $PINS Z=n_819 A=soc_can_tx_inst_state[0] 
+ B=soc_can_tx_inst_state[1] VSS=VSS VDD=VDD 
Xg4316__5526 NOR2X1 $PINS Z=n_21 A=soc_uart_tx_inst_state[0] 
+ B=soc_uart_tx_inst_state[1] VSS=VSS VDD=VDD 
Xg4317__6783 OR2X1 $PINS Z=n_829 A=soc_Can_ID_Bus[0] B=soc_can_tx_inst_state[1] 
+ VSS=VSS VDD=VDD 
Xg4318__3680 NAND2X1 $PINS Z=n_830 A=soc_uart_tx_inst_state[1] 
+ B=soc_uart_tx_inst_state[0] VSS=VSS VDD=VDD 
Xg4319__1617 NAND2X1 $PINS Z=n_831 A=soc_can_tx_inst_state[1] 
+ B=soc_can_tx_inst_state[0] VSS=VSS VDD=VDD 
Xg4320__2802 OR2X1 $PINS Z=n_828 A=tbyte_PAD B=soc_uart_tx_inst_state[1] 
+ VSS=VSS VDD=VDD 
Xg4582__5122 NAND3X1 $PINS Z=VSS A=VDD B=n_794 C=n_789 VSS=VSS VDD=VDD 
Xg4603__8246 NAND2X1 $PINS Z=soc_can_rx_inst_n_1161 A=n_793 
+ B=soc_can_rx_inst_bit_count[4] VSS=VSS VDD=VDD 
Xg4605__7098 OR2X1 $PINS Z=n_794 A=rbyte_PAD B=soc_can_rx_inst_n_1142 VSS=VSS 
+ VDD=VDD 
Xg4607 INVX2 $PINS Z=soc_can_rx_inst_n_1158 A=n_793 VSS=VSS VDD=VDD 
Xg4609__5115 NAND2X1 $PINS Z=soc_can_rx_inst_n_1143 A=n_787 B=n_788 VSS=VSS 
+ VDD=VDD 
Xg4610__7482 NOR2X1 $PINS Z=n_793 A=n_845 B=n_788 VSS=VSS VDD=VDD 
Xsoc_Bridge_Can_out_reg DFFQSRX1 $PINS Q=can_tx_PAD CLK=clock D=VDD RESETB=n_19 
+ SETB=VDD VSS=VSS VDD=VDD 
Xsoc_Bridge_Serial_out_reg DFFQSRX1 $PINS Q=ser_tx_PAD CLK=clock D=VDD 
+ RESETB=n_19 SETB=VDD VSS=VSS VDD=VDD 
Xg4615__4733 NAND2X1 $PINS Z=n_789 A=soc_can_rx_inst_state[2] B=n_32 VSS=VSS 
+ VDD=VDD 
Xg4618__6161 NAND2X1 $PINS Z=n_788 A=soc_can_rx_inst_bit_count[3] 
+ B=soc_can_rx_inst_bit_count[2] VSS=VSS VDD=VDD 
Xg4619__9315 NOR2X1 $PINS Z=n_787 A=soc_can_rx_inst_bit_count[5] 
+ B=soc_can_rx_inst_bit_count[4] VSS=VSS VDD=VDD 
Xg4624 INVX2 $PINS Z=n_19 A=rst_PAD VSS=VSS VDD=VDD 
Xg4628 INVX2 $PINS Z=n_32 A=soc_can_rx_inst_state[1] VSS=VSS VDD=VDD 
Xsoc_Can_ID_Bus_reg[0] DFFQSRX1 $PINS Q=soc_Can_ID_Bus[0] CLK=clock D=n_572 
+ RESETB=VDD SETB=n_19 VSS=VSS VDD=VDD 
Xsoc_Load_XMT_datareg_reg DFFQSRX1 $PINS Q=soc_Load_XMT_datareg CLK=clock 
+ D=soc_can_data_ready RESETB=VDD SETB=n_19 VSS=VSS VDD=VDD 
Xsoc_Load_frame_datareg_reg DFFQSRX1 $PINS Q=soc_Load_frame_datareg CLK=clock 
+ D=n_429 RESETB=VDD SETB=n_19 VSS=VSS VDD=VDD 
Xsoc_can_index_reg[0] DFFQSRX1 $PINS Q=soc_can_index[0] CLK=clock D=n_187 
+ RESETB=VDD SETB=n_19 VSS=VSS VDD=VDD 
Xsoc_can_index_reg[1] DFFQSRX1 $PINS Q=soc_can_index[1] CLK=clock D=n_356 
+ RESETB=VDD SETB=n_19 VSS=VSS VDD=VDD 
Xsoc_can_index_reg[2] DFFQSRX1 $PINS Q=soc_can_index[2] CLK=clock D=n_379 
+ RESETB=VDD SETB=n_19 VSS=VSS VDD=VDD 
Xsoc_can_rx_inst_Can_data_ready_reg DFFQSRX1 $PINS Q=soc_can_data_ready 
+ CLK=clock D=n_331 RESETB=VDD SETB=n_19 VSS=VSS VDD=VDD 
Xsoc_can_rx_inst_Can_rx_data_Bus_reg[0] DFFQSRX1 $PINS Q=soc_Can_rx_data_Bus[0] 
+ CLK=clock D=n_765 RESETB=VDD SETB=n_19 VSS=VSS VDD=VDD 
Xsoc_can_rx_inst_Can_rx_data_Bus_reg[1] DFFQSRX1 $PINS Q=soc_Can_rx_data_Bus[1] 
+ CLK=clock D=n_767 RESETB=VDD SETB=n_19 VSS=VSS VDD=VDD 
Xsoc_can_rx_inst_Can_rx_data_Bus_reg[2] DFFQSRX1 $PINS Q=soc_Can_rx_data_Bus[2] 
+ CLK=clock D=n_766 RESETB=VDD SETB=n_19 VSS=VSS VDD=VDD 
Xsoc_can_rx_inst_Can_rx_data_Bus_reg[3] DFFQSRX1 $PINS Q=soc_Can_rx_data_Bus[3] 
+ CLK=clock D=n_764 RESETB=VDD SETB=n_19 VSS=VSS VDD=VDD 
Xsoc_can_rx_inst_Can_rx_data_Bus_reg[4] DFFQSRX1 $PINS Q=soc_Can_rx_data_Bus[4] 
+ CLK=clock D=n_762 RESETB=VDD SETB=n_19 VSS=VSS VDD=VDD 
Xsoc_can_rx_inst_Can_rx_data_Bus_reg[5] DFFQSRX1 $PINS Q=soc_Can_rx_data_Bus[5] 
+ CLK=clock D=n_763 RESETB=VDD SETB=n_19 VSS=VSS VDD=VDD 
Xsoc_can_rx_inst_Can_rx_data_Bus_reg[6] DFFQSRX1 $PINS Q=soc_Can_rx_data_Bus[6] 
+ CLK=clock D=n_772 RESETB=VDD SETB=n_19 VSS=VSS VDD=VDD 
Xsoc_can_rx_inst_Can_rx_data_Bus_reg[7] DFFQSRX1 $PINS Q=soc_Can_rx_data_Bus[7] 
+ CLK=clock D=n_773 RESETB=VDD SETB=n_19 VSS=VSS VDD=VDD 
Xsoc_can_rx_inst_bit_count_reg[0] DFFQSRX1 $PINS Q=soc_can_rx_inst_bit_count[0] 
+ CLK=clock D=n_649 RESETB=VDD SETB=n_19 VSS=VSS VDD=VDD 
Xsoc_can_rx_inst_bit_count_reg[1] DFFQSRX1 $PINS Q=soc_can_rx_inst_bit_count[1] 
+ CLK=clock D=n_687 RESETB=VDD SETB=n_19 VSS=VSS VDD=VDD 
Xsoc_can_rx_inst_bit_count_reg[2] DFFQSRX1 $PINS Q=soc_can_rx_inst_bit_count[2] 
+ CLK=clock D=n_651 RESETB=VDD SETB=n_19 VSS=VSS VDD=VDD 
Xsoc_can_rx_inst_bit_count_reg[3] DFFQSRX1 $PINS Q=soc_can_rx_inst_bit_count[3] 
+ CLK=clock D=n_652 RESETB=VDD SETB=n_19 VSS=VSS VDD=VDD 
Xsoc_can_rx_inst_bit_count_reg[4] DFFQSRX1 $PINS Q=soc_can_rx_inst_bit_count[4] 
+ CLK=clock D=n_654 RESETB=VDD SETB=n_19 VSS=VSS VDD=VDD 
Xsoc_can_rx_inst_bit_count_reg[5] DFFQSRX1 $PINS Q=soc_can_rx_inst_bit_count[5] 
+ CLK=clock D=n_655 RESETB=VDD SETB=n_19 VSS=VSS VDD=VDD 
Xsoc_can_rx_inst_bit_count_reg[6] DFFQSRX1 $PINS Q=soc_can_rx_inst_bit_count[6] 
+ CLK=clock D=n_746 RESETB=VDD SETB=n_19 VSS=VSS VDD=VDD 
Xsoc_can_rx_inst_shift_reg_reg[60] DFFQSRX1 $PINS 
+ Q=soc_can_rx_inst_shift_reg[60] CLK=clock D=n_607 RESETB=VDD SETB=n_19 VSS=VSS 
+ VDD=VDD 
Xsoc_can_rx_inst_shift_reg_reg[61] DFFQSRX1 $PINS 
+ Q=soc_can_rx_inst_shift_reg[61] CLK=clock D=n_604 RESETB=VDD SETB=n_19 VSS=VSS 
+ VDD=VDD 
Xsoc_can_rx_inst_shift_reg_reg[62] DFFQSRX1 $PINS 
+ Q=soc_can_rx_inst_shift_reg[62] CLK=clock D=n_601 RESETB=VDD SETB=n_19 VSS=VSS 
+ VDD=VDD 
Xsoc_can_rx_inst_shift_reg_reg[63] DFFQSRX1 $PINS 
+ Q=soc_can_rx_inst_shift_reg[63] CLK=clock D=n_599 RESETB=VDD SETB=n_19 VSS=VSS 
+ VDD=VDD 
Xsoc_can_rx_inst_shift_reg_reg[64] DFFQSRX1 $PINS 
+ Q=soc_can_rx_inst_shift_reg[64] CLK=clock D=n_596 RESETB=VDD SETB=n_19 VSS=VSS 
+ VDD=VDD 
Xsoc_can_rx_inst_shift_reg_reg[65] DFFQSRX1 $PINS 
+ Q=soc_can_rx_inst_shift_reg[65] CLK=clock D=n_594 RESETB=VDD SETB=n_19 VSS=VSS 
+ VDD=VDD 
Xsoc_can_rx_inst_shift_reg_reg[66] DFFQSRX1 $PINS 
+ Q=soc_can_rx_inst_shift_reg[66] CLK=clock D=n_591 RESETB=VDD SETB=n_19 VSS=VSS 
+ VDD=VDD 
Xsoc_can_rx_inst_shift_reg_reg[67] DFFQSRX1 $PINS 
+ Q=soc_can_rx_inst_shift_reg[67] CLK=clock D=n_590 RESETB=VDD SETB=n_19 VSS=VSS 
+ VDD=VDD 
Xsoc_can_rx_inst_shift_reg_reg[68] DFFQSRX1 $PINS 
+ Q=soc_can_rx_inst_shift_reg[68] CLK=clock D=n_589 RESETB=VDD SETB=n_19 VSS=VSS 
+ VDD=VDD 
Xsoc_can_rx_inst_shift_reg_reg[69] DFFQSRX1 $PINS 
+ Q=soc_can_rx_inst_shift_reg[69] CLK=clock D=n_588 RESETB=VDD SETB=n_19 VSS=VSS 
+ VDD=VDD 
Xsoc_can_rx_inst_shift_reg_reg[70] DFFQSRX1 $PINS 
+ Q=soc_can_rx_inst_shift_reg[70] CLK=clock D=n_587 RESETB=VDD SETB=n_19 VSS=VSS 
+ VDD=VDD 
Xsoc_can_rx_inst_shift_reg_reg[71] DFFQSRX1 $PINS 
+ Q=soc_can_rx_inst_shift_reg[71] CLK=clock D=n_586 RESETB=VDD SETB=n_19 VSS=VSS 
+ VDD=VDD 
Xsoc_can_rx_inst_shift_reg_reg[72] DFFQSRX1 $PINS 
+ Q=soc_can_rx_inst_shift_reg[72] CLK=clock D=n_585 RESETB=VDD SETB=n_19 VSS=VSS 
+ VDD=VDD 
Xsoc_can_rx_inst_shift_reg_reg[73] DFFQSRX1 $PINS 
+ Q=soc_can_rx_inst_shift_reg[73] CLK=clock D=n_584 RESETB=VDD SETB=n_19 VSS=VSS 
+ VDD=VDD 
Xsoc_can_rx_inst_shift_reg_reg[74] DFFQSRX1 $PINS 
+ Q=soc_can_rx_inst_shift_reg[74] CLK=clock D=n_583 RESETB=VDD SETB=n_19 VSS=VSS 
+ VDD=VDD 
Xsoc_can_rx_inst_shift_reg_reg[75] DFFQSRX1 $PINS 
+ Q=soc_can_rx_inst_shift_reg[75] CLK=clock D=n_582 RESETB=VDD SETB=n_19 VSS=VSS 
+ VDD=VDD 
Xsoc_can_rx_inst_shift_reg_reg[76] DFFQSRX1 $PINS 
+ Q=soc_can_rx_inst_shift_reg[76] CLK=clock D=n_581 RESETB=VDD SETB=n_19 VSS=VSS 
+ VDD=VDD 
Xsoc_can_rx_inst_shift_reg_reg[77] DFFQSRX1 $PINS 
+ Q=soc_can_rx_inst_shift_reg[77] CLK=clock D=n_580 RESETB=VDD SETB=n_19 VSS=VSS 
+ VDD=VDD 
Xsoc_can_rx_inst_shift_reg_reg[78] DFFQSRX1 $PINS 
+ Q=soc_can_rx_inst_shift_reg[78] CLK=clock D=n_626 RESETB=VDD SETB=n_19 VSS=VSS 
+ VDD=VDD 
Xsoc_can_rx_inst_shift_reg_reg[79] DFFQSRX1 $PINS 
+ Q=soc_can_rx_inst_shift_reg[79] CLK=clock D=n_625 RESETB=VDD SETB=n_19 VSS=VSS 
+ VDD=VDD 
Xsoc_can_rx_inst_shift_reg_reg[80] DFFQSRX1 $PINS 
+ Q=soc_can_rx_inst_shift_reg[80] CLK=clock D=n_624 RESETB=VDD SETB=n_19 VSS=VSS 
+ VDD=VDD 
Xsoc_can_rx_inst_shift_reg_reg[81] DFFQSRX1 $PINS 
+ Q=soc_can_rx_inst_shift_reg[81] CLK=clock D=n_623 RESETB=VDD SETB=n_19 VSS=VSS 
+ VDD=VDD 
Xsoc_can_rx_inst_shift_reg_reg[82] DFFQSRX1 $PINS 
+ Q=soc_can_rx_inst_shift_reg[82] CLK=clock D=n_621 RESETB=VDD SETB=n_19 VSS=VSS 
+ VDD=VDD 
Xsoc_can_rx_inst_shift_reg_reg[83] DFFQSRX1 $PINS 
+ Q=soc_can_rx_inst_shift_reg[83] CLK=clock D=n_622 RESETB=VDD SETB=n_19 VSS=VSS 
+ VDD=VDD 
Xsoc_can_rx_inst_shift_reg_reg[84] DFFQSRX1 $PINS 
+ Q=soc_can_rx_inst_shift_reg[84] CLK=clock D=n_620 RESETB=VDD SETB=n_19 VSS=VSS 
+ VDD=VDD 
Xsoc_can_rx_inst_shift_reg_reg[85] DFFQSRX1 $PINS 
+ Q=soc_can_rx_inst_shift_reg[85] CLK=clock D=n_619 RESETB=VDD SETB=n_19 VSS=VSS 
+ VDD=VDD 
Xsoc_can_rx_inst_shift_reg_reg[86] DFFQSRX1 $PINS 
+ Q=soc_can_rx_inst_shift_reg[86] CLK=clock D=n_618 RESETB=VDD SETB=n_19 VSS=VSS 
+ VDD=VDD 
Xsoc_can_rx_inst_shift_reg_reg[87] DFFQSRX1 $PINS 
+ Q=soc_can_rx_inst_shift_reg[87] CLK=clock D=n_617 RESETB=VDD SETB=n_19 VSS=VSS 
+ VDD=VDD 
Xsoc_can_rx_inst_shift_reg_reg[88] DFFQSRX1 $PINS 
+ Q=soc_can_rx_inst_shift_reg[88] CLK=clock D=n_616 RESETB=VDD SETB=n_19 VSS=VSS 
+ VDD=VDD 
Xsoc_can_rx_inst_shift_reg_reg[89] DFFQSRX1 $PINS 
+ Q=soc_can_rx_inst_shift_reg[89] CLK=clock D=n_615 RESETB=VDD SETB=n_19 VSS=VSS 
+ VDD=VDD 
Xsoc_can_rx_inst_shift_reg_reg[90] DFFQSRX1 $PINS 
+ Q=soc_can_rx_inst_shift_reg[90] CLK=clock D=n_614 RESETB=VDD SETB=n_19 VSS=VSS 
+ VDD=VDD 
Xsoc_can_rx_inst_shift_reg_reg[91] DFFQSRX1 $PINS 
+ Q=soc_can_rx_inst_shift_reg[91] CLK=clock D=n_613 RESETB=VDD SETB=n_19 VSS=VSS 
+ VDD=VDD 
Xsoc_can_rx_inst_shift_reg_reg[92] DFFQSRX1 $PINS 
+ Q=soc_can_rx_inst_shift_reg[92] CLK=clock D=n_612 RESETB=VDD SETB=n_19 VSS=VSS 
+ VDD=VDD 
Xsoc_can_rx_inst_shift_reg_reg[93] DFFQSRX1 $PINS 
+ Q=soc_can_rx_inst_shift_reg[93] CLK=clock D=n_611 RESETB=VDD SETB=n_19 VSS=VSS 
+ VDD=VDD 
Xsoc_can_rx_inst_shift_reg_reg[94] DFFQSRX1 $PINS 
+ Q=soc_can_rx_inst_shift_reg[94] CLK=clock D=n_610 RESETB=VDD SETB=n_19 VSS=VSS 
+ VDD=VDD 
Xsoc_can_rx_inst_shift_reg_reg[95] DFFQSRX1 $PINS 
+ Q=soc_can_rx_inst_shift_reg[95] CLK=clock D=n_609 RESETB=VDD SETB=n_19 VSS=VSS 
+ VDD=VDD 
Xsoc_can_rx_inst_shift_reg_reg[96] DFFQSRX1 $PINS 
+ Q=soc_can_rx_inst_shift_reg[96] CLK=clock D=n_608 RESETB=VDD SETB=n_19 VSS=VSS 
+ VDD=VDD 
Xsoc_can_rx_inst_shift_reg_reg[97] DFFQSRX1 $PINS 
+ Q=soc_can_rx_inst_shift_reg[97] CLK=clock D=n_606 RESETB=VDD SETB=n_19 VSS=VSS 
+ VDD=VDD 
Xsoc_can_rx_inst_shift_reg_reg[98] DFFQSRX1 $PINS 
+ Q=soc_can_rx_inst_shift_reg[98] CLK=clock D=n_605 RESETB=VDD SETB=n_19 VSS=VSS 
+ VDD=VDD 
Xsoc_can_rx_inst_shift_reg_reg[99] DFFQSRX1 $PINS 
+ Q=soc_can_rx_inst_shift_reg[99] CLK=clock D=n_603 RESETB=VDD SETB=n_19 VSS=VSS 
+ VDD=VDD 
Xsoc_can_rx_inst_shift_reg_reg[100] DFFQSRX1 $PINS 
+ Q=soc_can_rx_inst_shift_reg[100] CLK=clock D=n_602 RESETB=VDD SETB=n_19 VSS=VSS 
+ VDD=VDD 
Xsoc_can_rx_inst_shift_reg_reg[101] DFFQSRX1 $PINS 
+ Q=soc_can_rx_inst_shift_reg[101] CLK=clock D=n_600 RESETB=VDD SETB=n_19 VSS=VSS 
+ VDD=VDD 
Xsoc_can_rx_inst_shift_reg_reg[102] DFFQSRX1 $PINS 
+ Q=soc_can_rx_inst_shift_reg[102] CLK=clock D=n_598 RESETB=VDD SETB=n_19 VSS=VSS 
+ VDD=VDD 
Xsoc_can_rx_inst_shift_reg_reg[103] DFFQSRX1 $PINS 
+ Q=soc_can_rx_inst_shift_reg[103] CLK=clock D=n_597 RESETB=VDD SETB=n_19 VSS=VSS 
+ VDD=VDD 
Xsoc_can_rx_inst_shift_reg_reg[104] DFFQSRX1 $PINS 
+ Q=soc_can_rx_inst_shift_reg[104] CLK=clock D=n_595 RESETB=VDD SETB=n_19 VSS=VSS 
+ VDD=VDD 
Xsoc_can_rx_inst_shift_reg_reg[105] DFFQSRX1 $PINS 
+ Q=soc_can_rx_inst_shift_reg[105] CLK=clock D=n_593 RESETB=VDD SETB=n_19 VSS=VSS 
+ VDD=VDD 
Xsoc_can_rx_inst_shift_reg_reg[106] DFFQSRX1 $PINS 
+ Q=soc_can_rx_inst_shift_reg[106] CLK=clock D=n_592 RESETB=VDD SETB=n_19 VSS=VSS 
+ VDD=VDD 
Xsoc_can_rx_inst_state_reg[1] DFFQSRX1 $PINS Q=soc_can_rx_inst_state[1] 
+ CLK=clock D=VSS RESETB=VDD SETB=n_19 VSS=VSS VDD=VDD 
Xsoc_can_rx_inst_state_reg[2] DFFQSRX1 $PINS Q=soc_can_rx_inst_state[2] 
+ CLK=clock D=VSS RESETB=VDD SETB=n_19 VSS=VSS VDD=VDD 
Xsoc_can_tx_data_bus_reg[0] DFFQSRX1 $PINS Q=soc_can_tx_data_bus[0] CLK=clock 
+ D=n_139 RESETB=VDD SETB=n_19 VSS=VSS VDD=VDD 
Xsoc_can_tx_data_bus_reg[1] DFFQSRX1 $PINS Q=soc_can_tx_data_bus[1] CLK=clock 
+ D=n_164 RESETB=VDD SETB=n_19 VSS=VSS VDD=VDD 
Xsoc_can_tx_data_bus_reg[2] DFFQSRX1 $PINS Q=soc_can_tx_data_bus[2] CLK=clock 
+ D=n_177 RESETB=VDD SETB=n_19 VSS=VSS VDD=VDD 
Xsoc_can_tx_data_bus_reg[3] DFFQSRX1 $PINS Q=soc_can_tx_data_bus[3] CLK=clock 
+ D=n_148 RESETB=VDD SETB=n_19 VSS=VSS VDD=VDD 
Xsoc_can_tx_data_bus_reg[4] DFFQSRX1 $PINS Q=soc_can_tx_data_bus[4] CLK=clock 
+ D=n_133 RESETB=VDD SETB=n_19 VSS=VSS VDD=VDD 
Xsoc_can_tx_data_bus_reg[5] DFFQSRX1 $PINS Q=soc_can_tx_data_bus[5] CLK=clock 
+ D=n_145 RESETB=VDD SETB=n_19 VSS=VSS VDD=VDD 
Xsoc_can_tx_data_bus_reg[6] DFFQSRX1 $PINS Q=soc_can_tx_data_bus[6] CLK=clock 
+ D=n_185 RESETB=VDD SETB=n_19 VSS=VSS VDD=VDD 
Xsoc_can_tx_data_bus_reg[7] DFFQSRX1 $PINS Q=soc_can_tx_data_bus[7] CLK=clock 
+ D=n_136 RESETB=VDD SETB=n_19 VSS=VSS VDD=VDD 
Xsoc_can_tx_data_bus_reg[8] DFFQSRX1 $PINS Q=soc_can_tx_data_bus[8] CLK=clock 
+ D=n_134 RESETB=VDD SETB=n_19 VSS=VSS VDD=VDD 
Xsoc_can_tx_data_bus_reg[9] DFFQSRX1 $PINS Q=soc_can_tx_data_bus[9] CLK=clock 
+ D=n_132 RESETB=VDD SETB=n_19 VSS=VSS VDD=VDD 
Xsoc_can_tx_data_bus_reg[10] DFFQSRX1 $PINS Q=soc_can_tx_data_bus[10] CLK=clock 
+ D=n_130 RESETB=VDD SETB=n_19 VSS=VSS VDD=VDD 
Xsoc_can_tx_data_bus_reg[11] DFFQSRX1 $PINS Q=soc_can_tx_data_bus[11] CLK=clock 
+ D=n_129 RESETB=VDD SETB=n_19 VSS=VSS VDD=VDD 
Xsoc_can_tx_data_bus_reg[12] DFFQSRX1 $PINS Q=soc_can_tx_data_bus[12] CLK=clock 
+ D=n_128 RESETB=VDD SETB=n_19 VSS=VSS VDD=VDD 
Xsoc_can_tx_data_bus_reg[13] DFFQSRX1 $PINS Q=soc_can_tx_data_bus[13] CLK=clock 
+ D=n_127 RESETB=VDD SETB=n_19 VSS=VSS VDD=VDD 
Xsoc_can_tx_data_bus_reg[14] DFFQSRX1 $PINS Q=soc_can_tx_data_bus[14] CLK=clock 
+ D=n_126 RESETB=VDD SETB=n_19 VSS=VSS VDD=VDD 
Xsoc_can_tx_data_bus_reg[15] DFFQSRX1 $PINS Q=soc_can_tx_data_bus[15] CLK=clock 
+ D=n_125 RESETB=VDD SETB=n_19 VSS=VSS VDD=VDD 
Xsoc_can_tx_data_bus_reg[16] DFFQSRX1 $PINS Q=soc_can_tx_data_bus[16] CLK=clock 
+ D=n_124 RESETB=VDD SETB=n_19 VSS=VSS VDD=VDD 
Xsoc_can_tx_data_bus_reg[17] DFFQSRX1 $PINS Q=soc_can_tx_data_bus[17] CLK=clock 
+ D=n_123 RESETB=VDD SETB=n_19 VSS=VSS VDD=VDD 
Xsoc_can_tx_data_bus_reg[18] DFFQSRX1 $PINS Q=soc_can_tx_data_bus[18] CLK=clock 
+ D=n_135 RESETB=VDD SETB=n_19 VSS=VSS VDD=VDD 
Xsoc_can_tx_data_bus_reg[19] DFFQSRX1 $PINS Q=soc_can_tx_data_bus[19] CLK=clock 
+ D=n_137 RESETB=VDD SETB=n_19 VSS=VSS VDD=VDD 
Xsoc_can_tx_data_bus_reg[20] DFFQSRX1 $PINS Q=soc_can_tx_data_bus[20] CLK=clock 
+ D=n_186 RESETB=VDD SETB=n_19 VSS=VSS VDD=VDD 
Xsoc_can_tx_data_bus_reg[21] DFFQSRX1 $PINS Q=soc_can_tx_data_bus[21] CLK=clock 
+ D=n_184 RESETB=VDD SETB=n_19 VSS=VSS VDD=VDD 
Xsoc_can_tx_data_bus_reg[22] DFFQSRX1 $PINS Q=soc_can_tx_data_bus[22] CLK=clock 
+ D=n_183 RESETB=VDD SETB=n_19 VSS=VSS VDD=VDD 
Xsoc_can_tx_data_bus_reg[23] DFFQSRX1 $PINS Q=soc_can_tx_data_bus[23] CLK=clock 
+ D=n_182 RESETB=VDD SETB=n_19 VSS=VSS VDD=VDD 
Xsoc_can_tx_data_bus_reg[24] DFFQSRX1 $PINS Q=soc_can_tx_data_bus[24] CLK=clock 
+ D=n_180 RESETB=VDD SETB=n_19 VSS=VSS VDD=VDD 
Xsoc_can_tx_data_bus_reg[25] DFFQSRX1 $PINS Q=soc_can_tx_data_bus[25] CLK=clock 
+ D=n_179 RESETB=VDD SETB=n_19 VSS=VSS VDD=VDD 
Xsoc_can_tx_data_bus_reg[26] DFFQSRX1 $PINS Q=soc_can_tx_data_bus[26] CLK=clock 
+ D=n_178 RESETB=VDD SETB=n_19 VSS=VSS VDD=VDD 
Xsoc_can_tx_data_bus_reg[27] DFFQSRX1 $PINS Q=soc_can_tx_data_bus[27] CLK=clock 
+ D=n_176 RESETB=VDD SETB=n_19 VSS=VSS VDD=VDD 
Xsoc_can_tx_data_bus_reg[28] DFFQSRX1 $PINS Q=soc_can_tx_data_bus[28] CLK=clock 
+ D=n_161 RESETB=VDD SETB=n_19 VSS=VSS VDD=VDD 
Xsoc_can_tx_data_bus_reg[29] DFFQSRX1 $PINS Q=soc_can_tx_data_bus[29] CLK=clock 
+ D=n_174 RESETB=VDD SETB=n_19 VSS=VSS VDD=VDD 
Xsoc_can_tx_data_bus_reg[30] DFFQSRX1 $PINS Q=soc_can_tx_data_bus[30] CLK=clock 
+ D=n_172 RESETB=VDD SETB=n_19 VSS=VSS VDD=VDD 
Xsoc_can_tx_data_bus_reg[31] DFFQSRX1 $PINS Q=soc_can_tx_data_bus[31] CLK=clock 
+ D=n_171 RESETB=VDD SETB=n_19 VSS=VSS VDD=VDD 
Xsoc_can_tx_data_bus_reg[32] DFFQSRX1 $PINS Q=soc_can_tx_data_bus[32] CLK=clock 
+ D=n_181 RESETB=VDD SETB=n_19 VSS=VSS VDD=VDD 
Xsoc_can_tx_data_bus_reg[33] DFFQSRX1 $PINS Q=soc_can_tx_data_bus[33] CLK=clock 
+ D=n_169 RESETB=VDD SETB=n_19 VSS=VSS VDD=VDD 
Xsoc_can_tx_data_bus_reg[34] DFFQSRX1 $PINS Q=soc_can_tx_data_bus[34] CLK=clock 
+ D=n_168 RESETB=VDD SETB=n_19 VSS=VSS VDD=VDD 
Xsoc_can_tx_data_bus_reg[35] DFFQSRX1 $PINS Q=soc_can_tx_data_bus[35] CLK=clock 
+ D=n_167 RESETB=VDD SETB=n_19 VSS=VSS VDD=VDD 
Xsoc_can_tx_data_bus_reg[36] DFFQSRX1 $PINS Q=soc_can_tx_data_bus[36] CLK=clock 
+ D=n_163 RESETB=VDD SETB=n_19 VSS=VSS VDD=VDD 
Xsoc_can_tx_data_bus_reg[37] DFFQSRX1 $PINS Q=soc_can_tx_data_bus[37] CLK=clock 
+ D=n_166 RESETB=VDD SETB=n_19 VSS=VSS VDD=VDD 
Xsoc_can_tx_data_bus_reg[38] DFFQSRX1 $PINS Q=soc_can_tx_data_bus[38] CLK=clock 
+ D=n_175 RESETB=VDD SETB=n_19 VSS=VSS VDD=VDD 
Xsoc_can_tx_data_bus_reg[39] DFFQSRX1 $PINS Q=soc_can_tx_data_bus[39] CLK=clock 
+ D=n_143 RESETB=VDD SETB=n_19 VSS=VSS VDD=VDD 
Xsoc_can_tx_data_bus_reg[40] DFFQSRX1 $PINS Q=soc_can_tx_data_bus[40] CLK=clock 
+ D=n_216 RESETB=VDD SETB=n_19 VSS=VSS VDD=VDD 
Xsoc_can_tx_data_bus_reg[41] DFFQSRX1 $PINS Q=soc_can_tx_data_bus[41] CLK=clock 
+ D=n_142 RESETB=VDD SETB=n_19 VSS=VSS VDD=VDD 
Xsoc_can_tx_data_bus_reg[42] DFFQSRX1 $PINS Q=soc_can_tx_data_bus[42] CLK=clock 
+ D=n_160 RESETB=VDD SETB=n_19 VSS=VSS VDD=VDD 
Xsoc_can_tx_data_bus_reg[43] DFFQSRX1 $PINS Q=soc_can_tx_data_bus[43] CLK=clock 
+ D=n_159 RESETB=VDD SETB=n_19 VSS=VSS VDD=VDD 
Xsoc_can_tx_data_bus_reg[44] DFFQSRX1 $PINS Q=soc_can_tx_data_bus[44] CLK=clock 
+ D=n_173 RESETB=VDD SETB=n_19 VSS=VSS VDD=VDD 
Xsoc_can_tx_data_bus_reg[45] DFFQSRX1 $PINS Q=soc_can_tx_data_bus[45] CLK=clock 
+ D=n_157 RESETB=VDD SETB=n_19 VSS=VSS VDD=VDD 
Xsoc_can_tx_data_bus_reg[46] DFFQSRX1 $PINS Q=soc_can_tx_data_bus[46] CLK=clock 
+ D=n_144 RESETB=VDD SETB=n_19 VSS=VSS VDD=VDD 
Xsoc_can_tx_data_bus_reg[47] DFFQSRX1 $PINS Q=soc_can_tx_data_bus[47] CLK=clock 
+ D=n_156 RESETB=VDD SETB=n_19 VSS=VSS VDD=VDD 
Xsoc_can_tx_data_bus_reg[48] DFFQSRX1 $PINS Q=soc_can_tx_data_bus[48] CLK=clock 
+ D=n_141 RESETB=VDD SETB=n_19 VSS=VSS VDD=VDD 
Xsoc_can_tx_data_bus_reg[49] DFFQSRX1 $PINS Q=soc_can_tx_data_bus[49] CLK=clock 
+ D=n_155 RESETB=VDD SETB=n_19 VSS=VSS VDD=VDD 
Xsoc_can_tx_data_bus_reg[50] DFFQSRX1 $PINS Q=soc_can_tx_data_bus[50] CLK=clock 
+ D=n_153 RESETB=VDD SETB=n_19 VSS=VSS VDD=VDD 
Xsoc_can_tx_data_bus_reg[51] DFFQSRX1 $PINS Q=soc_can_tx_data_bus[51] CLK=clock 
+ D=n_152 RESETB=VDD SETB=n_19 VSS=VSS VDD=VDD 
Xsoc_can_tx_data_bus_reg[52] DFFQSRX1 $PINS Q=soc_can_tx_data_bus[52] CLK=clock 
+ D=n_140 RESETB=VDD SETB=n_19 VSS=VSS VDD=VDD 
Xsoc_can_tx_data_bus_reg[53] DFFQSRX1 $PINS Q=soc_can_tx_data_bus[53] CLK=clock 
+ D=n_151 RESETB=VDD SETB=n_19 VSS=VSS VDD=VDD 
Xsoc_can_tx_data_bus_reg[54] DFFQSRX1 $PINS Q=soc_can_tx_data_bus[54] CLK=clock 
+ D=n_149 RESETB=VDD SETB=n_19 VSS=VSS VDD=VDD 
Xsoc_can_tx_data_bus_reg[55] DFFQSRX1 $PINS Q=soc_can_tx_data_bus[55] CLK=clock 
+ D=n_131 RESETB=VDD SETB=n_19 VSS=VSS VDD=VDD 
Xsoc_can_tx_data_bus_reg[56] DFFQSRX1 $PINS Q=soc_can_tx_data_bus[56] CLK=clock 
+ D=n_138 RESETB=VDD SETB=n_19 VSS=VSS VDD=VDD 
Xsoc_can_tx_data_bus_reg[57] DFFQSRX1 $PINS Q=soc_can_tx_data_bus[57] CLK=clock 
+ D=n_146 RESETB=VDD SETB=n_19 VSS=VSS VDD=VDD 
Xsoc_can_tx_data_bus_reg[58] DFFQSRX1 $PINS Q=soc_can_tx_data_bus[58] CLK=clock 
+ D=n_150 RESETB=VDD SETB=n_19 VSS=VSS VDD=VDD 
Xsoc_can_tx_data_bus_reg[59] DFFQSRX1 $PINS Q=soc_can_tx_data_bus[59] CLK=clock 
+ D=n_154 RESETB=VDD SETB=n_19 VSS=VSS VDD=VDD 
Xsoc_can_tx_data_bus_reg[60] DFFQSRX1 $PINS Q=soc_can_tx_data_bus[60] CLK=clock 
+ D=n_158 RESETB=VDD SETB=n_19 VSS=VSS VDD=VDD 
Xsoc_can_tx_data_bus_reg[61] DFFQSRX1 $PINS Q=soc_can_tx_data_bus[61] CLK=clock 
+ D=n_165 RESETB=VDD SETB=n_19 VSS=VSS VDD=VDD 
Xsoc_can_tx_data_bus_reg[62] DFFQSRX1 $PINS Q=soc_can_tx_data_bus[62] CLK=clock 
+ D=n_170 RESETB=VDD SETB=n_19 VSS=VSS VDD=VDD 
Xsoc_can_tx_data_bus_reg[63] DFFQSRX1 $PINS Q=soc_can_tx_data_bus[63] CLK=clock 
+ D=n_147 RESETB=VDD SETB=n_19 VSS=VSS VDD=VDD 
Xsoc_can_tx_inst_shift_reg_reg[0] DFFQSRX1 $PINS Q=soc_can_tx_inst_shift_reg[0] 
+ CLK=clock D=n_643 RESETB=n_19 SETB=VDD VSS=VSS VDD=VDD 
Xsoc_can_tx_inst_shift_reg_reg[1] DFFQSRX1 $PINS Q=soc_can_tx_inst_shift_reg[1] 
+ CLK=clock D=n_675 RESETB=n_19 SETB=VDD VSS=VSS VDD=VDD 
Xsoc_can_tx_inst_shift_reg_reg[2] DFFQSRX1 $PINS Q=soc_can_tx_inst_shift_reg[2] 
+ CLK=clock D=n_642 RESETB=n_19 SETB=VDD VSS=VSS VDD=VDD 
Xsoc_can_tx_inst_shift_reg_reg[3] DFFQSRX1 $PINS Q=soc_can_tx_inst_shift_reg[3] 
+ CLK=clock D=n_677 RESETB=n_19 SETB=VDD VSS=VSS VDD=VDD 
Xsoc_can_tx_inst_shift_reg_reg[4] DFFQSRX1 $PINS Q=soc_can_tx_inst_shift_reg[4] 
+ CLK=clock D=n_679 RESETB=n_19 SETB=VDD VSS=VSS VDD=VDD 
Xsoc_can_tx_inst_shift_reg_reg[5] DFFQSRX1 $PINS Q=soc_can_tx_inst_shift_reg[5] 
+ CLK=clock D=n_641 RESETB=n_19 SETB=VDD VSS=VSS VDD=VDD 
Xsoc_can_tx_inst_shift_reg_reg[6] DFFQSRX1 $PINS Q=soc_can_tx_inst_shift_reg[6] 
+ CLK=clock D=n_640 RESETB=n_19 SETB=VDD VSS=VSS VDD=VDD 
Xsoc_can_tx_inst_shift_reg_reg[7] DFFQSRX1 $PINS Q=soc_can_tx_inst_shift_reg[7] 
+ CLK=clock D=n_639 RESETB=n_19 SETB=VDD VSS=VSS VDD=VDD 
Xsoc_can_tx_inst_shift_reg_reg[8] DFFQSRX1 $PINS Q=soc_can_tx_inst_shift_reg[8] 
+ CLK=clock D=n_638 RESETB=n_19 SETB=VDD VSS=VSS VDD=VDD 
Xsoc_can_tx_inst_shift_reg_reg[9] DFFQSRX1 $PINS Q=soc_can_tx_inst_shift_reg[9] 
+ CLK=clock D=n_637 RESETB=n_19 SETB=VDD VSS=VSS VDD=VDD 
Xsoc_can_tx_inst_shift_reg_reg[10] DFFQSRX1 $PINS 
+ Q=soc_can_tx_inst_shift_reg[10] CLK=clock D=n_380 RESETB=VDD SETB=n_19 VSS=VSS 
+ VDD=VDD 
Xsoc_can_tx_inst_shift_reg_reg[11] DFFQSRX1 $PINS 
+ Q=soc_can_tx_inst_shift_reg[11] CLK=clock D=n_680 RESETB=VDD SETB=n_19 VSS=VSS 
+ VDD=VDD 
Xsoc_can_tx_inst_shift_reg_reg[12] DFFQSRX1 $PINS 
+ Q=soc_can_tx_inst_shift_reg[12] CLK=clock D=n_681 RESETB=VDD SETB=n_19 VSS=VSS 
+ VDD=VDD 
Xsoc_can_tx_inst_shift_reg_reg[13] DFFQSRX1 $PINS 
+ Q=soc_can_tx_inst_shift_reg[13] CLK=clock D=n_682 RESETB=VDD SETB=n_19 VSS=VSS 
+ VDD=VDD 
Xsoc_can_tx_inst_shift_reg_reg[14] DFFQSRX1 $PINS 
+ Q=soc_can_tx_inst_shift_reg[14] CLK=clock D=n_683 RESETB=VDD SETB=n_19 VSS=VSS 
+ VDD=VDD 
Xsoc_can_tx_inst_shift_reg_reg[15] DFFQSRX1 $PINS 
+ Q=soc_can_tx_inst_shift_reg[15] CLK=clock D=n_684 RESETB=VDD SETB=n_19 VSS=VSS 
+ VDD=VDD 
Xsoc_can_tx_inst_shift_reg_reg[16] DFFQSRX1 $PINS 
+ Q=soc_can_tx_inst_shift_reg[16] CLK=clock D=n_685 RESETB=VDD SETB=n_19 VSS=VSS 
+ VDD=VDD 
Xsoc_can_tx_inst_shift_reg_reg[17] DFFQSRX1 $PINS 
+ Q=soc_can_tx_inst_shift_reg[17] CLK=clock D=n_646 RESETB=VDD SETB=n_19 VSS=VSS 
+ VDD=VDD 
Xsoc_can_tx_inst_shift_reg_reg[18] DFFQSRX1 $PINS 
+ Q=soc_can_tx_inst_shift_reg[18] CLK=clock D=n_648 RESETB=VDD SETB=n_19 VSS=VSS 
+ VDD=VDD 
Xsoc_can_tx_inst_shift_reg_reg[19] DFFQSRX1 $PINS 
+ Q=soc_can_tx_inst_shift_reg[19] CLK=clock D=n_647 RESETB=VDD SETB=n_19 VSS=VSS 
+ VDD=VDD 
Xsoc_can_tx_inst_shift_reg_reg[20] DFFQSRX1 $PINS 
+ Q=soc_can_tx_inst_shift_reg[20] CLK=clock D=n_699 RESETB=VDD SETB=n_19 VSS=VSS 
+ VDD=VDD 
Xsoc_can_tx_inst_shift_reg_reg[21] DFFQSRX1 $PINS 
+ Q=soc_can_tx_inst_shift_reg[21] CLK=clock D=n_698 RESETB=VDD SETB=n_19 VSS=VSS 
+ VDD=VDD 
Xsoc_can_tx_inst_shift_reg_reg[22] DFFQSRX1 $PINS 
+ Q=soc_can_tx_inst_shift_reg[22] CLK=clock D=n_697 RESETB=VDD SETB=n_19 VSS=VSS 
+ VDD=VDD 
Xsoc_can_tx_inst_shift_reg_reg[23] DFFQSRX1 $PINS 
+ Q=soc_can_tx_inst_shift_reg[23] CLK=clock D=n_696 RESETB=VDD SETB=n_19 VSS=VSS 
+ VDD=VDD 
Xsoc_can_tx_inst_shift_reg_reg[24] DFFQSRX1 $PINS 
+ Q=soc_can_tx_inst_shift_reg[24] CLK=clock D=n_695 RESETB=VDD SETB=n_19 VSS=VSS 
+ VDD=VDD 
Xsoc_can_tx_inst_shift_reg_reg[25] DFFQSRX1 $PINS 
+ Q=soc_can_tx_inst_shift_reg[25] CLK=clock D=n_694 RESETB=VDD SETB=n_19 VSS=VSS 
+ VDD=VDD 
Xsoc_can_tx_inst_shift_reg_reg[26] DFFQSRX1 $PINS 
+ Q=soc_can_tx_inst_shift_reg[26] CLK=clock D=n_693 RESETB=VDD SETB=n_19 VSS=VSS 
+ VDD=VDD 
Xsoc_can_tx_inst_shift_reg_reg[27] DFFQSRX1 $PINS 
+ Q=soc_can_tx_inst_shift_reg[27] CLK=clock D=n_692 RESETB=VDD SETB=n_19 VSS=VSS 
+ VDD=VDD 
Xsoc_can_tx_inst_shift_reg_reg[28] DFFQSRX1 $PINS 
+ Q=soc_can_tx_inst_shift_reg[28] CLK=clock D=n_691 RESETB=VDD SETB=n_19 VSS=VSS 
+ VDD=VDD 
Xsoc_can_tx_inst_shift_reg_reg[29] DFFQSRX1 $PINS 
+ Q=soc_can_tx_inst_shift_reg[29] CLK=clock D=n_690 RESETB=VDD SETB=n_19 VSS=VSS 
+ VDD=VDD 
Xsoc_can_tx_inst_shift_reg_reg[30] DFFQSRX1 $PINS 
+ Q=soc_can_tx_inst_shift_reg[30] CLK=clock D=n_689 RESETB=VDD SETB=n_19 VSS=VSS 
+ VDD=VDD 
Xsoc_can_tx_inst_shift_reg_reg[31] DFFQSRX1 $PINS 
+ Q=soc_can_tx_inst_shift_reg[31] CLK=clock D=n_717 RESETB=VDD SETB=n_19 VSS=VSS 
+ VDD=VDD 
Xsoc_can_tx_inst_shift_reg_reg[32] DFFQSRX1 $PINS 
+ Q=soc_can_tx_inst_shift_reg[32] CLK=clock D=n_747 RESETB=VDD SETB=n_19 VSS=VSS 
+ VDD=VDD 
Xsoc_can_tx_inst_shift_reg_reg[33] DFFQSRX1 $PINS 
+ Q=soc_can_tx_inst_shift_reg[33] CLK=clock D=n_748 RESETB=VDD SETB=n_19 VSS=VSS 
+ VDD=VDD 
Xsoc_can_tx_inst_shift_reg_reg[34] DFFQSRX1 $PINS 
+ Q=soc_can_tx_inst_shift_reg[34] CLK=clock D=n_749 RESETB=VDD SETB=n_19 VSS=VSS 
+ VDD=VDD 
Xsoc_can_tx_inst_shift_reg_reg[35] DFFQSRX1 $PINS 
+ Q=soc_can_tx_inst_shift_reg[35] CLK=clock D=n_750 RESETB=VDD SETB=n_19 VSS=VSS 
+ VDD=VDD 
Xsoc_can_tx_inst_shift_reg_reg[36] DFFQSRX1 $PINS 
+ Q=soc_can_tx_inst_shift_reg[36] CLK=clock D=n_751 RESETB=VDD SETB=n_19 VSS=VSS 
+ VDD=VDD 
Xsoc_can_tx_inst_shift_reg_reg[37] DFFQSRX1 $PINS 
+ Q=soc_can_tx_inst_shift_reg[37] CLK=clock D=n_752 RESETB=VDD SETB=n_19 VSS=VSS 
+ VDD=VDD 
Xsoc_can_tx_inst_shift_reg_reg[38] DFFQSRX1 $PINS 
+ Q=soc_can_tx_inst_shift_reg[38] CLK=clock D=n_753 RESETB=VDD SETB=n_19 VSS=VSS 
+ VDD=VDD 
Xsoc_can_tx_inst_shift_reg_reg[39] DFFQSRX1 $PINS 
+ Q=soc_can_tx_inst_shift_reg[39] CLK=clock D=n_754 RESETB=VDD SETB=n_19 VSS=VSS 
+ VDD=VDD 
Xsoc_can_tx_inst_shift_reg_reg[40] DFFQSRX1 $PINS 
+ Q=soc_can_tx_inst_shift_reg[40] CLK=clock D=n_755 RESETB=VDD SETB=n_19 VSS=VSS 
+ VDD=VDD 
Xsoc_can_tx_inst_shift_reg_reg[41] DFFQSRX1 $PINS 
+ Q=soc_can_tx_inst_shift_reg[41] CLK=clock D=n_756 RESETB=VDD SETB=n_19 VSS=VSS 
+ VDD=VDD 
Xsoc_can_tx_inst_shift_reg_reg[42] DFFQSRX1 $PINS 
+ Q=soc_can_tx_inst_shift_reg[42] CLK=clock D=n_757 RESETB=VDD SETB=n_19 VSS=VSS 
+ VDD=VDD 
Xsoc_can_tx_inst_shift_reg_reg[43] DFFQSRX1 $PINS 
+ Q=soc_can_tx_inst_shift_reg[43] CLK=clock D=n_758 RESETB=VDD SETB=n_19 VSS=VSS 
+ VDD=VDD 
Xsoc_can_tx_inst_shift_reg_reg[44] DFFQSRX1 $PINS 
+ Q=soc_can_tx_inst_shift_reg[44] CLK=clock D=n_759 RESETB=VDD SETB=n_19 VSS=VSS 
+ VDD=VDD 
Xsoc_can_tx_inst_shift_reg_reg[45] DFFQSRX1 $PINS 
+ Q=soc_can_tx_inst_shift_reg[45] CLK=clock D=n_738 RESETB=VDD SETB=n_19 VSS=VSS 
+ VDD=VDD 
Xsoc_can_tx_inst_shift_reg_reg[46] DFFQSRX1 $PINS 
+ Q=soc_can_tx_inst_shift_reg[46] CLK=clock D=n_737 RESETB=VDD SETB=n_19 VSS=VSS 
+ VDD=VDD 
Xsoc_can_tx_inst_shift_reg_reg[47] DFFQSRX1 $PINS 
+ Q=soc_can_tx_inst_shift_reg[47] CLK=clock D=n_736 RESETB=VDD SETB=n_19 VSS=VSS 
+ VDD=VDD 
Xsoc_can_tx_inst_shift_reg_reg[48] DFFQSRX1 $PINS 
+ Q=soc_can_tx_inst_shift_reg[48] CLK=clock D=n_735 RESETB=VDD SETB=n_19 VSS=VSS 
+ VDD=VDD 
Xsoc_can_tx_inst_shift_reg_reg[49] DFFQSRX1 $PINS 
+ Q=soc_can_tx_inst_shift_reg[49] CLK=clock D=n_734 RESETB=VDD SETB=n_19 VSS=VSS 
+ VDD=VDD 
Xsoc_can_tx_inst_shift_reg_reg[50] DFFQSRX1 $PINS 
+ Q=soc_can_tx_inst_shift_reg[50] CLK=clock D=n_733 RESETB=VDD SETB=n_19 VSS=VSS 
+ VDD=VDD 
Xsoc_can_tx_inst_shift_reg_reg[51] DFFQSRX1 $PINS 
+ Q=soc_can_tx_inst_shift_reg[51] CLK=clock D=n_732 RESETB=VDD SETB=n_19 VSS=VSS 
+ VDD=VDD 
Xsoc_can_tx_inst_shift_reg_reg[52] DFFQSRX1 $PINS 
+ Q=soc_can_tx_inst_shift_reg[52] CLK=clock D=n_731 RESETB=VDD SETB=n_19 VSS=VSS 
+ VDD=VDD 
Xsoc_can_tx_inst_shift_reg_reg[53] DFFQSRX1 $PINS 
+ Q=soc_can_tx_inst_shift_reg[53] CLK=clock D=n_730 RESETB=VDD SETB=n_19 VSS=VSS 
+ VDD=VDD 
Xsoc_can_tx_inst_shift_reg_reg[54] DFFQSRX1 $PINS 
+ Q=soc_can_tx_inst_shift_reg[54] CLK=clock D=n_729 RESETB=VDD SETB=n_19 VSS=VSS 
+ VDD=VDD 
Xsoc_can_tx_inst_shift_reg_reg[55] DFFQSRX1 $PINS 
+ Q=soc_can_tx_inst_shift_reg[55] CLK=clock D=n_728 RESETB=VDD SETB=n_19 VSS=VSS 
+ VDD=VDD 
Xsoc_can_tx_inst_shift_reg_reg[56] DFFQSRX1 $PINS 
+ Q=soc_can_tx_inst_shift_reg[56] CLK=clock D=n_727 RESETB=VDD SETB=n_19 VSS=VSS 
+ VDD=VDD 
Xsoc_can_tx_inst_shift_reg_reg[57] DFFQSRX1 $PINS 