* SPICE NETLIST
***************************************

.SUBCKT crtmom PLUS MINUS BULK
.ENDS
***************************************
.SUBCKT cfmom PLUS MINUS BULK
.ENDS
***************************************
.SUBCKT cfmom_rf PLUS MINUS BULK
.ENDS
***************************************
.SUBCKT cfmom_mx PLUS1 MINUS1 PLUS2 MINUS2 BULK
.ENDS
***************************************
.SUBCKT lcesd1_rf PLUS MINUS
.ENDS
***************************************
.SUBCKT lcesd2_rf PLUS MINUS
.ENDS
***************************************
.SUBCKT mimcap_2p0_shield PLUS MINUS BULK
.ENDS
***************************************
.SUBCKT mimcap_2p0_sin TOP BOT
.ENDS
***************************************
.SUBCKT mimcap_2p0_sin_3t PLUS MINUS BULK
.ENDS
***************************************
.SUBCKT mimcap_2p0_wos PLUS MINUS BULK
.ENDS
***************************************
.SUBCKT moscap_rf PLUS MINUS BULK
.ENDS
***************************************
.SUBCKT moscap_rf33 PLUS MINUS BULK
.ENDS
***************************************
.SUBCKT moscap_rf33_nw PLUS MINUS BULK
.ENDS
***************************************
.SUBCKT moscap_rf_nw PLUS MINUS BULK
.ENDS
***************************************
.SUBCKT nmos_rf D G S B
.ENDS
***************************************
.SUBCKT nmos_rf33 D G S B
.ENDS
***************************************
.SUBCKT nmos_rf33_6t D G S B NG PG
.ENDS
***************************************
.SUBCKT nmos_rf_6t D G S B NG PG
.ENDS
***************************************
.SUBCKT nmoscap PLUS MINUS
.ENDS
***************************************
.SUBCKT nmoscap_33 PLUS MINUS
.ENDS
***************************************
.SUBCKT pmos_rf D G S B
.ENDS
***************************************
.SUBCKT pmos_rf33 D G S B
.ENDS
***************************************
.SUBCKT pmos_rf33_5t D G S B PG
.ENDS
***************************************
.SUBCKT pmos_rf33_nw D G S B
.ENDS
***************************************
.SUBCKT pmos_rf33_nw_5t D G S B PG
.ENDS
***************************************
.SUBCKT pmos_rf_5t D G S B PG
.ENDS
***************************************
.SUBCKT pmos_rf_nw D G S B
.ENDS
***************************************
.SUBCKT pmos_rf_nw_5t D G S B PG
.ENDS
***************************************
.SUBCKT rnod_m PLUS MINUS B
.ENDS
***************************************
.SUBCKT rnodrpo_m PLUS MINUS B
.ENDS
***************************************
.SUBCKT rnodw_m PLUS MINUS B
.ENDS
***************************************
.SUBCKT rnpo1_dis PLUS MINUS B
.ENDS
***************************************
.SUBCKT rnpo1rpo_dis PLUS MINUS B
.ENDS
***************************************
.SUBCKT rnpo1w_dis PLUS MINUS B
.ENDS
***************************************
.SUBCKT rnwod_m PLUS MINUS B
.ENDS
***************************************
.SUBCKT rnwsti_m PLUS MINUS B
.ENDS
***************************************
.SUBCKT rpod_m PLUS MINUS B
.ENDS
***************************************
.SUBCKT rpodrpo_m PLUS MINUS B
.ENDS
***************************************
.SUBCKT rpodw_m PLUS MINUS B
.ENDS
***************************************
.SUBCKT rppo1_dis PLUS MINUS B
.ENDS
***************************************
.SUBCKT rppo1rpo_dis PLUS MINUS B
.ENDS
***************************************
.SUBCKT rppo1w_dis PLUS MINUS B
.ENDS
***************************************
.SUBCKT rppolyhri_dis PLUS MINUS B
.ENDS
***************************************
.SUBCKT rppolyhri_rf PLUS MINUS BULK
.ENDS
***************************************
.SUBCKT rppolyl_rf PLUS MINUS BULK
.ENDS
***************************************
.SUBCKT rppolys_rf PLUS MINUS BULK
.ENDS
***************************************
.SUBCKT rppolywo_rf PLUS MINUS BULK
.ENDS
***************************************
.SUBCKT sbd_rf PLUS MINUS BULK
.ENDS
***************************************
.SUBCKT sbd_rf_nw PLUS MINUS BULK
.ENDS
***************************************
.SUBCKT spiral_std_mu_x_40k PLUS MINUS BULK
.ENDS
***************************************
.SUBCKT spiral_sym_ct_mu_x_40k PLUS MINUS BULK CTAP
.ENDS
***************************************
.SUBCKT spiral_sym_mu_x_40k PLUS MINUS BULK
.ENDS
***************************************
.SUBCKT xjvar_nr36 PLUS MINUS BULK
.ENDS
***************************************
.SUBCKT xjvar_w40 PLUS MINUS BULK
.ENDS
***************************************
.SUBCKT ICV_72
** N=1 EP=0 IP=0 FDC=0
.ENDS
***************************************
.SUBCKT ICV_71
** N=1 EP=0 IP=0 FDC=0
.ENDS
***************************************
.SUBCKT ICV_70
** N=1 EP=0 IP=0 FDC=0
.ENDS
***************************************
.SUBCKT padbox
** N=1 EP=0 IP=0 FDC=0
.ENDS
***************************************
.SUBCKT pad_out VDD DataOut pad VSS
** N=25 EP=4 IP=1 FDC=96
M0 VSS VDD 7 VSS N L=3.5e-07 W=9e-06 $X=5700 $Y=147100 $D=0
M1 8 7 VSS VSS N L=3.5e-07 W=9e-06 $X=8100 $Y=147100 $D=0
M2 VSS DataOut 10 VSS N L=3.5e-07 W=9e-06 $X=13200 $Y=147100 $D=0
M3 10 DataOut VSS VSS N L=3.5e-07 W=9e-06 $X=15600 $Y=147100 $D=0
M4 pad 10 VSS VSS N L=3.5e-07 W=2e-05 $X=15770 $Y=191300 $D=0
M5 VSS 10 pad VSS N L=3.5e-07 W=2e-05 $X=15770 $Y=196210 $D=0
M6 pad 10 VSS VSS N L=3.5e-07 W=2e-05 $X=15770 $Y=197780 $D=0
M7 VSS 10 pad VSS N L=3.5e-07 W=2e-05 $X=15770 $Y=202690 $D=0
M8 pad 10 VSS VSS N L=3.5e-07 W=2e-05 $X=15770 $Y=204260 $D=0
M9 VSS 10 pad VSS N L=3.5e-07 W=2e-05 $X=15770 $Y=209170 $D=0
M10 pad 10 VSS VSS N L=3.5e-07 W=2e-05 $X=15770 $Y=210740 $D=0
M11 VSS 10 pad VSS N L=3.5e-07 W=2e-05 $X=15770 $Y=215650 $D=0
M12 pad 10 VSS VSS N L=3.5e-07 W=2e-05 $X=15770 $Y=217220 $D=0
M13 VSS 10 pad VSS N L=3.5e-07 W=2e-05 $X=15770 $Y=222130 $D=0
M14 VSS DataOut 10 VSS N L=3.5e-07 W=9e-06 $X=18000 $Y=147100 $D=0
M15 10 DataOut VSS VSS N L=3.5e-07 W=9e-06 $X=20400 $Y=147100 $D=0
M16 VSS DataOut 10 VSS N L=3.5e-07 W=9e-06 $X=22800 $Y=147100 $D=0
M17 10 7 VSS VSS N L=3.5e-07 W=9e-06 $X=25200 $Y=147100 $D=0
M18 VSS 7 10 VSS N L=3.5e-07 W=9e-06 $X=27600 $Y=147100 $D=0
M19 10 7 VSS VSS N L=3.5e-07 W=9e-06 $X=30000 $Y=147100 $D=0
M20 VSS 7 10 VSS N L=3.5e-07 W=9e-06 $X=32400 $Y=147100 $D=0
M21 10 7 VSS VSS N L=3.5e-07 W=9e-06 $X=34800 $Y=147100 $D=0
M22 9 8 10 VSS N L=3.5e-07 W=9e-06 $X=37200 $Y=147100 $D=0
M23 10 8 9 VSS N L=3.5e-07 W=9e-06 $X=39600 $Y=147100 $D=0
M24 9 8 10 VSS N L=3.5e-07 W=9e-06 $X=42000 $Y=147100 $D=0
M25 10 8 9 VSS N L=3.5e-07 W=9e-06 $X=44400 $Y=147100 $D=0
M26 pad 10 VSS VSS N L=3.5e-07 W=2e-05 $X=54230 $Y=191300 $D=0
M27 VSS 10 pad VSS N L=3.5e-07 W=2e-05 $X=54230 $Y=196210 $D=0
M28 pad 10 VSS VSS N L=3.5e-07 W=2e-05 $X=54230 $Y=197780 $D=0
M29 VSS 10 pad VSS N L=3.5e-07 W=2e-05 $X=54230 $Y=202690 $D=0
M30 pad 10 VSS VSS N L=3.5e-07 W=2e-05 $X=54230 $Y=204260 $D=0
M31 VSS 10 pad VSS N L=3.5e-07 W=2e-05 $X=54230 $Y=209170 $D=0
M32 pad 10 VSS VSS N L=3.5e-07 W=2e-05 $X=54230 $Y=210740 $D=0
M33 VSS 10 pad VSS N L=3.5e-07 W=2e-05 $X=54230 $Y=215650 $D=0
M34 pad 10 VSS VSS N L=3.5e-07 W=2e-05 $X=54230 $Y=217220 $D=0
M35 VSS 10 pad VSS N L=3.5e-07 W=2e-05 $X=54230 $Y=222130 $D=0
M36 11 pad VSS VSS N L=3.5e-07 W=9e-06 $X=59400 $Y=146950 $D=0
M37 VSS pad 11 VSS N L=3.5e-07 W=9e-06 $X=61800 $Y=146950 $D=0
M38 11 pad VSS VSS N L=3.5e-07 W=9e-06 $X=64200 $Y=146950 $D=0
M39 VSS pad 11 VSS N L=3.5e-07 W=9e-06 $X=66600 $Y=146950 $D=0
M40 11 pad VSS VSS N L=3.5e-07 W=9e-06 $X=69000 $Y=146950 $D=0
M41 VSS pad 11 VSS N L=3.5e-07 W=9e-06 $X=71400 $Y=146950 $D=0
M42 12 11 VSS VSS N L=3.5e-07 W=9e-06 $X=73800 $Y=146950 $D=0
M43 VSS 11 12 VSS N L=3.5e-07 W=9e-06 $X=76200 $Y=146950 $D=0
M44 12 11 VSS VSS N L=3.5e-07 W=9e-06 $X=78600 $Y=146950 $D=0
M45 VSS 11 12 VSS N L=3.5e-07 W=9e-06 $X=81000 $Y=146950 $D=0
M46 12 11 VSS VSS N L=3.5e-07 W=9e-06 $X=83400 $Y=146950 $D=0
M47 VSS 11 12 VSS N L=3.5e-07 W=9e-06 $X=85800 $Y=146950 $D=0
M48 VDD VDD 7 VDD P L=3.5e-07 W=1.56e-05 $X=5700 $Y=165550 $D=16
M49 8 7 VDD VDD P L=3.5e-07 W=1.56e-05 $X=8100 $Y=165550 $D=16
M50 VDD DataOut 9 VDD P L=3.5e-07 W=1.56e-05 $X=13200 $Y=165550 $D=16
M51 9 DataOut VDD VDD P L=3.5e-07 W=1.56e-05 $X=15600 $Y=165550 $D=16
M52 pad 9 VDD VDD P L=3.5e-07 W=2e-05 $X=15795 $Y=97085 $D=16
M53 VDD 9 pad VDD P L=3.5e-07 W=2e-05 $X=15795 $Y=101995 $D=16
M54 pad 9 VDD VDD P L=3.5e-07 W=2e-05 $X=15795 $Y=103565 $D=16
M55 VDD 9 pad VDD P L=3.5e-07 W=2e-05 $X=15795 $Y=108475 $D=16
M56 pad 9 VDD VDD P L=3.5e-07 W=2e-05 $X=15795 $Y=110045 $D=16
M57 VDD 9 pad VDD P L=3.5e-07 W=2e-05 $X=15795 $Y=114955 $D=16
M58 pad 9 VDD VDD P L=3.5e-07 W=2e-05 $X=15795 $Y=116525 $D=16
M59 VDD 9 pad VDD P L=3.5e-07 W=2e-05 $X=15795 $Y=121435 $D=16
M60 pad 9 VDD VDD P L=3.5e-07 W=2e-05 $X=15795 $Y=123005 $D=16
M61 VDD 9 pad VDD P L=3.5e-07 W=2e-05 $X=15795 $Y=127915 $D=16
M62 VDD DataOut 9 VDD P L=3.5e-07 W=1.56e-05 $X=18000 $Y=165550 $D=16
M63 9 DataOut VDD VDD P L=3.5e-07 W=1.56e-05 $X=20400 $Y=165550 $D=16
M64 VDD DataOut 9 VDD P L=3.5e-07 W=1.56e-05 $X=22800 $Y=165550 $D=16
M65 9 8 VDD VDD P L=3.5e-07 W=1.56e-05 $X=25200 $Y=165550 $D=16
M66 VDD 8 9 VDD P L=3.5e-07 W=1.56e-05 $X=27600 $Y=165550 $D=16
M67 9 8 VDD VDD P L=3.5e-07 W=1.56e-05 $X=30000 $Y=165550 $D=16
M68 VDD 8 9 VDD P L=3.5e-07 W=1.56e-05 $X=32400 $Y=165550 $D=16
M69 9 8 VDD VDD P L=3.5e-07 W=1.56e-05 $X=34800 $Y=165550 $D=16
M70 10 7 9 VDD P L=3.5e-07 W=1.56e-05 $X=37200 $Y=165550 $D=16
M71 9 7 10 VDD P L=3.5e-07 W=1.56e-05 $X=39600 $Y=165550 $D=16
M72 10 7 9 VDD P L=3.5e-07 W=1.56e-05 $X=42000 $Y=165550 $D=16
M73 9 7 10 VDD P L=3.5e-07 W=1.56e-05 $X=44400 $Y=165550 $D=16
M74 pad 9 VDD VDD P L=3.5e-07 W=2e-05 $X=53330 $Y=97085 $D=16
M75 VDD 9 pad VDD P L=3.5e-07 W=2e-05 $X=53330 $Y=101995 $D=16
M76 pad 9 VDD VDD P L=3.5e-07 W=2e-05 $X=53330 $Y=103565 $D=16
M77 VDD 9 pad VDD P L=3.5e-07 W=2e-05 $X=53330 $Y=108475 $D=16
M78 pad 9 VDD VDD P L=3.5e-07 W=2e-05 $X=53330 $Y=110045 $D=16
M79 VDD 9 pad VDD P L=3.5e-07 W=2e-05 $X=53330 $Y=114955 $D=16
M80 pad 9 VDD VDD P L=3.5e-07 W=2e-05 $X=53330 $Y=116525 $D=16
M81 VDD 9 pad VDD P L=3.5e-07 W=2e-05 $X=53330 $Y=121435 $D=16
M82 pad 9 VDD VDD P L=3.5e-07 W=2e-05 $X=53330 $Y=123005 $D=16
M83 VDD 9 pad VDD P L=3.5e-07 W=2e-05 $X=53330 $Y=127915 $D=16
M84 11 pad VDD VDD P L=3.5e-07 W=1.56e-05 $X=59400 $Y=165550 $D=16
M85 VDD pad 11 VDD P L=3.5e-07 W=1.56e-05 $X=61800 $Y=165550 $D=16
M86 11 pad VDD VDD P L=3.5e-07 W=1.56e-05 $X=64200 $Y=165550 $D=16
M87 VDD pad 11 VDD P L=3.5e-07 W=1.56e-05 $X=66600 $Y=165550 $D=16
M88 11 pad VDD VDD P L=3.5e-07 W=1.56e-05 $X=69000 $Y=165550 $D=16
M89 VDD pad 11 VDD P L=3.5e-07 W=1.56e-05 $X=71400 $Y=165550 $D=16
M90 12 11 VDD VDD P L=3.5e-07 W=1.56e-05 $X=73800 $Y=165550 $D=16
M91 VDD 11 12 VDD P L=3.5e-07 W=1.56e-05 $X=76200 $Y=165550 $D=16
M92 12 11 VDD VDD P L=3.5e-07 W=1.56e-05 $X=78600 $Y=165550 $D=16
M93 VDD 11 12 VDD P L=3.5e-07 W=1.56e-05 $X=81000 $Y=165550 $D=16
M94 12 11 VDD VDD P L=3.5e-07 W=1.56e-05 $X=83400 $Y=165550 $D=16
M95 VDD 11 12 VDD P L=3.5e-07 W=1.56e-05 $X=85800 $Y=165550 $D=16
.ENDS
***************************************
.SUBCKT ICV_12 1 2 3 4
** N=6 EP=4 IP=6 FDC=96
X0 2 3 4 1 pad_out $T=0 0 0 0 $X=-900 $Y=0
.ENDS
***************************************
.SUBCKT ICV_69
** N=1 EP=0 IP=0 FDC=0
.ENDS
***************************************
.SUBCKT ICV_68
** N=1 EP=0 IP=0 FDC=0
.ENDS
***************************************
.SUBCKT pad_in VSS pad VDD DataIn
** N=24 EP=4 IP=1 FDC=96
M0 VSS VSS 7 VSS N L=3.5e-07 W=9e-06 $X=5700 $Y=147100 $D=0
M1 8 7 VSS VSS N L=3.5e-07 W=9e-06 $X=8100 $Y=147100 $D=0
M2 VSS VSS 10 VSS N L=3.5e-07 W=9e-06 $X=13200 $Y=147100 $D=0
M3 10 VSS VSS VSS N L=3.5e-07 W=9e-06 $X=15600 $Y=147100 $D=0
M4 pad 10 VSS VSS N L=3.5e-07 W=2e-05 $X=15770 $Y=191300 $D=0
M5 VSS 10 pad VSS N L=3.5e-07 W=2e-05 $X=15770 $Y=196210 $D=0
M6 pad 10 VSS VSS N L=3.5e-07 W=2e-05 $X=15770 $Y=197780 $D=0
M7 VSS 10 pad VSS N L=3.5e-07 W=2e-05 $X=15770 $Y=202690 $D=0
M8 pad 10 VSS VSS N L=3.5e-07 W=2e-05 $X=15770 $Y=204260 $D=0
M9 VSS 10 pad VSS N L=3.5e-07 W=2e-05 $X=15770 $Y=209170 $D=0
M10 pad 10 VSS VSS N L=3.5e-07 W=2e-05 $X=15770 $Y=210740 $D=0
M11 VSS 10 pad VSS N L=3.5e-07 W=2e-05 $X=15770 $Y=215650 $D=0
M12 pad 10 VSS VSS N L=3.5e-07 W=2e-05 $X=15770 $Y=217220 $D=0
M13 VSS 10 pad VSS N L=3.5e-07 W=2e-05 $X=15770 $Y=222130 $D=0
M14 VSS VSS 10 VSS N L=3.5e-07 W=9e-06 $X=18000 $Y=147100 $D=0
M15 10 VSS VSS VSS N L=3.5e-07 W=9e-06 $X=20400 $Y=147100 $D=0
M16 VSS VSS 10 VSS N L=3.5e-07 W=9e-06 $X=22800 $Y=147100 $D=0
M17 10 7 VSS VSS N L=3.5e-07 W=9e-06 $X=25200 $Y=147100 $D=0
M18 VSS 7 10 VSS N L=3.5e-07 W=9e-06 $X=27600 $Y=147100 $D=0
M19 10 7 VSS VSS N L=3.5e-07 W=9e-06 $X=30000 $Y=147100 $D=0
M20 VSS 7 10 VSS N L=3.5e-07 W=9e-06 $X=32400 $Y=147100 $D=0
M21 10 7 VSS VSS N L=3.5e-07 W=9e-06 $X=34800 $Y=147100 $D=0
M22 9 8 10 VSS N L=3.5e-07 W=9e-06 $X=37200 $Y=147100 $D=0
M23 10 8 9 VSS N L=3.5e-07 W=9e-06 $X=39600 $Y=147100 $D=0
M24 9 8 10 VSS N L=3.5e-07 W=9e-06 $X=42000 $Y=147100 $D=0
M25 10 8 9 VSS N L=3.5e-07 W=9e-06 $X=44400 $Y=147100 $D=0
M26 pad 10 VSS VSS N L=3.5e-07 W=2e-05 $X=54230 $Y=191300 $D=0
M27 VSS 10 pad VSS N L=3.5e-07 W=2e-05 $X=54230 $Y=196210 $D=0
M28 pad 10 VSS VSS N L=3.5e-07 W=2e-05 $X=54230 $Y=197780 $D=0
M29 VSS 10 pad VSS N L=3.5e-07 W=2e-05 $X=54230 $Y=202690 $D=0
M30 pad 10 VSS VSS N L=3.5e-07 W=2e-05 $X=54230 $Y=204260 $D=0
M31 VSS 10 pad VSS N L=3.5e-07 W=2e-05 $X=54230 $Y=209170 $D=0
M32 pad 10 VSS VSS N L=3.5e-07 W=2e-05 $X=54230 $Y=210740 $D=0
M33 VSS 10 pad VSS N L=3.5e-07 W=2e-05 $X=54230 $Y=215650 $D=0
M34 pad 10 VSS VSS N L=3.5e-07 W=2e-05 $X=54230 $Y=217220 $D=0
M35 VSS 10 pad VSS N L=3.5e-07 W=2e-05 $X=54230 $Y=222130 $D=0
M36 11 pad VSS VSS N L=3.5e-07 W=9e-06 $X=59400 $Y=146950 $D=0
M37 VSS pad 11 VSS N L=3.5e-07 W=9e-06 $X=61800 $Y=146950 $D=0
M38 11 pad VSS VSS N L=3.5e-07 W=9e-06 $X=64200 $Y=146950 $D=0
M39 VSS pad 11 VSS N L=3.5e-07 W=9e-06 $X=66600 $Y=146950 $D=0
M40 11 pad VSS VSS N L=3.5e-07 W=9e-06 $X=69000 $Y=146950 $D=0
M41 VSS pad 11 VSS N L=3.5e-07 W=9e-06 $X=71400 $Y=146950 $D=0
M42 DataIn 11 VSS VSS N L=3.5e-07 W=9e-06 $X=73800 $Y=146950 $D=0
M43 VSS 11 DataIn VSS N L=3.5e-07 W=9e-06 $X=76200 $Y=146950 $D=0
M44 DataIn 11 VSS VSS N L=3.5e-07 W=9e-06 $X=78600 $Y=146950 $D=0
M45 VSS 11 DataIn VSS N L=3.5e-07 W=9e-06 $X=81000 $Y=146950 $D=0
M46 DataIn 11 VSS VSS N L=3.5e-07 W=9e-06 $X=83400 $Y=146950 $D=0
M47 VSS 11 DataIn VSS N L=3.5e-07 W=9e-06 $X=85800 $Y=146950 $D=0
M48 VDD VSS 7 VDD P L=3.5e-07 W=1.56e-05 $X=5700 $Y=165550 $D=16
M49 8 7 VDD VDD P L=3.5e-07 W=1.56e-05 $X=8100 $Y=165550 $D=16
M50 VDD VSS 9 VDD P L=3.5e-07 W=1.56e-05 $X=13200 $Y=165550 $D=16
M51 9 VSS VDD VDD P L=3.5e-07 W=1.56e-05 $X=15600 $Y=165550 $D=16
M52 pad 9 VDD VDD P L=3.5e-07 W=2e-05 $X=15795 $Y=97085 $D=16
M53 VDD 9 pad VDD P L=3.5e-07 W=2e-05 $X=15795 $Y=101995 $D=16
M54 pad 9 VDD VDD P L=3.5e-07 W=2e-05 $X=15795 $Y=103565 $D=16
M55 VDD 9 pad VDD P L=3.5e-07 W=2e-05 $X=15795 $Y=108475 $D=16
M56 pad 9 VDD VDD P L=3.5e-07 W=2e-05 $X=15795 $Y=110045 $D=16
M57 VDD 9 pad VDD P L=3.5e-07 W=2e-05 $X=15795 $Y=114955 $D=16
M58 pad 9 VDD VDD P L=3.5e-07 W=2e-05 $X=15795 $Y=116525 $D=16
M59 VDD 9 pad VDD P L=3.5e-07 W=2e-05 $X=15795 $Y=121435 $D=16
M60 pad 9 VDD VDD P L=3.5e-07 W=2e-05 $X=15795 $Y=123005 $D=16
M61 VDD 9 pad VDD P L=3.5e-07 W=2e-05 $X=15795 $Y=127915 $D=16
M62 VDD VSS 9 VDD P L=3.5e-07 W=1.56e-05 $X=18000 $Y=165550 $D=16
M63 9 VSS VDD VDD P L=3.5e-07 W=1.56e-05 $X=20400 $Y=165550 $D=16
M64 VDD VSS 9 VDD P L=3.5e-07 W=1.56e-05 $X=22800 $Y=165550 $D=16
M65 9 8 VDD VDD P L=3.5e-07 W=1.56e-05 $X=25200 $Y=165550 $D=16
M66 VDD 8 9 VDD P L=3.5e-07 W=1.56e-05 $X=27600 $Y=165550 $D=16
M67 9 8 VDD VDD P L=3.5e-07 W=1.56e-05 $X=30000 $Y=165550 $D=16
M68 VDD 8 9 VDD P L=3.5e-07 W=1.56e-05 $X=32400 $Y=165550 $D=16
M69 9 8 VDD VDD P L=3.5e-07 W=1.56e-05 $X=34800 $Y=165550 $D=16
M70 10 7 9 VDD P L=3.5e-07 W=1.56e-05 $X=37200 $Y=165550 $D=16
M71 9 7 10 VDD P L=3.5e-07 W=1.56e-05 $X=39600 $Y=165550 $D=16
M72 10 7 9 VDD P L=3.5e-07 W=1.56e-05 $X=42000 $Y=165550 $D=16
M73 9 7 10 VDD P L=3.5e-07 W=1.56e-05 $X=44400 $Y=165550 $D=16
M74 pad 9 VDD VDD P L=3.5e-07 W=2e-05 $X=53330 $Y=97085 $D=16
M75 VDD 9 pad VDD P L=3.5e-07 W=2e-05 $X=53330 $Y=101995 $D=16
M76 pad 9 VDD VDD P L=3.5e-07 W=2e-05 $X=53330 $Y=103565 $D=16
M77 VDD 9 pad VDD P L=3.5e-07 W=2e-05 $X=53330 $Y=108475 $D=16
M78 pad 9 VDD VDD P L=3.5e-07 W=2e-05 $X=53330 $Y=110045 $D=16
M79 VDD 9 pad VDD P L=3.5e-07 W=2e-05 $X=53330 $Y=114955 $D=16
M80 pad 9 VDD VDD P L=3.5e-07 W=2e-05 $X=53330 $Y=116525 $D=16
M81 VDD 9 pad VDD P L=3.5e-07 W=2e-05 $X=53330 $Y=121435 $D=16
M82 pad 9 VDD VDD P L=3.5e-07 W=2e-05 $X=53330 $Y=123005 $D=16
M83 VDD 9 pad VDD P L=3.5e-07 W=2e-05 $X=53330 $Y=127915 $D=16
M84 11 pad VDD VDD P L=3.5e-07 W=1.56e-05 $X=59400 $Y=165550 $D=16
M85 VDD pad 11 VDD P L=3.5e-07 W=1.56e-05 $X=61800 $Y=165550 $D=16
M86 11 pad VDD VDD P L=3.5e-07 W=1.56e-05 $X=64200 $Y=165550 $D=16
M87 VDD pad 11 VDD P L=3.5e-07 W=1.56e-05 $X=66600 $Y=165550 $D=16
M88 11 pad VDD VDD P L=3.5e-07 W=1.56e-05 $X=69000 $Y=165550 $D=16
M89 VDD pad 11 VDD P L=3.5e-07 W=1.56e-05 $X=71400 $Y=165550 $D=16
M90 DataIn 11 VDD VDD P L=3.5e-07 W=1.56e-05 $X=73800 $Y=165550 $D=16
M91 VDD 11 DataIn VDD P L=3.5e-07 W=1.56e-05 $X=76200 $Y=165550 $D=16
M92 DataIn 11 VDD VDD P L=3.5e-07 W=1.56e-05 $X=78600 $Y=165550 $D=16
M93 VDD 11 DataIn VDD P L=3.5e-07 W=1.56e-05 $X=81000 $Y=165550 $D=16
M94 DataIn 11 VDD VDD P L=3.5e-07 W=1.56e-05 $X=83400 $Y=165550 $D=16
M95 VDD 11 DataIn VDD P L=3.5e-07 W=1.56e-05 $X=85800 $Y=165550 $D=16
.ENDS
***************************************
.SUBCKT ICV_8 1 2 3 4
** N=6 EP=4 IP=6 FDC=96
X0 1 4 2 3 pad_in $T=0 0 0 0 $X=-900 $Y=0
.ENDS
***************************************
.SUBCKT ICV_67
** N=1 EP=0 IP=0 FDC=0
.ENDS
***************************************
.SUBCKT ICV_66
** N=1 EP=0 IP=0 FDC=0
.ENDS
***************************************
.SUBCKT ICV_65
** N=1 EP=0 IP=0 FDC=0
.ENDS
***************************************
.SUBCKT ICV_64
** N=1 EP=0 IP=0 FDC=0
.ENDS
***************************************
.SUBCKT ICV_63
** N=1 EP=0 IP=0 FDC=0
.ENDS
***************************************
.SUBCKT pad_corner
** N=4 EP=0 IP=0 FDC=0
*.CALIBRE ISOLATED NETS: VSS VDD
.ENDS
***************************************
.SUBCKT pad_fill_32
** N=4 EP=0 IP=0 FDC=0
*.CALIBRE ISOLATED NETS: VSS VDD
.ENDS
***************************************
.SUBCKT pad_fill_16
** N=4 EP=0 IP=0 FDC=0
*.CALIBRE ISOLATED NETS: VSS VDD
.ENDS
***************************************
.SUBCKT pad_fill_8
** N=4 EP=0 IP=0 FDC=0
*.CALIBRE ISOLATED NETS: VSS VDD
.ENDS
***************************************
.SUBCKT pad_fill_2
** N=4 EP=0 IP=0 FDC=0
*.CALIBRE ISOLATED NETS: VSS VDD
.ENDS
***************************************
.SUBCKT pad_fill_01
** N=4 EP=0 IP=0 FDC=0
*.CALIBRE ISOLATED NETS: VSS VDD
.ENDS
***************************************
.SUBCKT ICV_62
** N=4 EP=0 IP=44 FDC=0
.ENDS
***************************************
.SUBCKT pad_fill_005
** N=4 EP=0 IP=0 FDC=0
*.CALIBRE ISOLATED NETS: VSS VDD
.ENDS
***************************************
.SUBCKT ICV_61
** N=4 EP=0 IP=72 FDC=0
.ENDS
***************************************
.SUBCKT ICV_10
** N=4 EP=0 IP=4 FDC=0
.ENDS
***************************************
.SUBCKT ICV_59
** N=5 EP=0 IP=72 FDC=0
.ENDS
***************************************
.SUBCKT ICV_6
** N=4 EP=0 IP=4 FDC=0
.ENDS
***************************************
.SUBCKT ICV_57
** N=4 EP=0 IP=72 FDC=0
.ENDS
***************************************
.SUBCKT ICV_56
** N=4 EP=0 IP=40 FDC=0
.ENDS
***************************************
.SUBCKT ICV_55
** N=1 EP=0 IP=0 FDC=0
.ENDS
***************************************
.SUBCKT ICV_60
** N=3 EP=0 IP=0 FDC=0
.ENDS
***************************************
.SUBCKT ICV_58
** N=3 EP=0 IP=0 FDC=0
.ENDS
***************************************
.SUBCKT ICV_1 VSS VDD
** N=38 EP=2 IP=1 FDC=1
D0 VSS VDD pdio_m AREA=9e-10 PJ=0.00012 $X=8570 $Y=96300 $D=31
.ENDS
***************************************
.SUBCKT ICV_4 1 2 4
** N=7 EP=3 IP=6 FDC=96
X0 1 4 2 7 pad_in $T=0 0 0 0 $X=-900 $Y=0
.ENDS
***************************************
.SUBCKT ICV_54
** N=1 EP=0 IP=0 FDC=0
.ENDS
***************************************
.SUBCKT bridge_soc_top_VIA15
** N=1 EP=0 IP=0 FDC=0
.ENDS
***************************************
.SUBCKT ICV_53
** N=6 EP=0 IP=73 FDC=0
.ENDS
***************************************
.SUBCKT FILL2
** N=4 EP=0 IP=0 FDC=0
.ENDS
***************************************
.SUBCKT DFFQSRX1 D CLK SETB RESETB VSS VDD Q
** N=34 EP=7 IP=0 FDC=40
M0 VSS D 20 VSS N L=1.8e-07 W=2.2e-07 $X=945 $Y=750 $D=0
M1 10 CLK VSS VSS N L=1.8e-07 W=2.2e-07 $X=1745 $Y=750 $D=0
M2 11 10 20 VSS N L=1.8e-07 W=2.2e-07 $X=3245 $Y=755 $D=0
M3 12 11 VSS VSS N L=1.8e-07 W=2.2e-07 $X=4745 $Y=755 $D=0
M4 13 12 VSS VSS N L=1.8e-07 W=2.2e-07 $X=6250 $Y=760 $D=0
M5 VSS 14 13 VSS N L=1.8e-07 W=2.2e-07 $X=7050 $Y=760 $D=0
M6 15 13 VSS VSS N L=1.8e-07 W=2.2e-07 $X=7850 $Y=1120 $D=0
M7 VSS SETB 14 VSS N L=1.8e-07 W=2.2e-07 $X=9355 $Y=755 $D=0
M8 22 CLK 11 VSS N L=1.8e-07 W=2.2e-07 $X=10860 $Y=750 $D=0
M9 33 15 VSS VSS N L=1.8e-07 W=4.4e-07 $X=12320 $Y=965 $D=0
M10 22 RESETB 33 VSS N L=1.8e-07 W=4.4e-07 $X=13040 $Y=965 $D=0
M11 16 CLK 15 VSS N L=1.8e-07 W=2.2e-07 $X=14500 $Y=755 $D=0
M12 34 16 VSS VSS N L=1.8e-07 W=4.4e-07 $X=15960 $Y=740 $D=0
M13 17 RESETB 34 VSS N L=1.8e-07 W=4.4e-07 $X=16680 $Y=740 $D=0
M14 18 17 VSS VSS N L=1.8e-07 W=2.2e-07 $X=18140 $Y=755 $D=0
M15 19 18 VSS VSS N L=1.8e-07 W=2.2e-07 $X=19640 $Y=755 $D=0
M16 VSS 14 19 VSS N L=1.8e-07 W=2.2e-07 $X=20440 $Y=755 $D=0
M17 24 19 VSS VSS N L=1.8e-07 W=2.2e-07 $X=21240 $Y=755 $D=0
M18 16 10 24 VSS N L=1.8e-07 W=2.2e-07 $X=22740 $Y=755 $D=0
M19 Q 17 VSS VSS N L=1.8e-07 W=2.2e-07 $X=24240 $Y=755 $D=0
M20 VDD D 20 VDD P L=1.8e-07 W=4.4e-07 $X=945 $Y=2705 $D=16
M21 10 CLK VDD VDD P L=1.8e-07 W=4.4e-07 $X=1665 $Y=2705 $D=16
M22 11 CLK 20 VDD P L=1.8e-07 W=4.4e-07 $X=3245 $Y=2725 $D=16
M23 12 11 VDD VDD P L=1.8e-07 W=4.4e-07 $X=4745 $Y=2725 $D=16
M24 21 12 13 VDD P L=1.8e-07 W=8.8e-07 $X=6250 $Y=2300 $D=16
M25 VDD 14 21 VDD P L=1.8e-07 W=8.8e-07 $X=6970 $Y=2300 $D=16
M26 15 13 VDD VDD P L=1.8e-07 W=4.4e-07 $X=7730 $Y=2520 $D=16
M27 VDD SETB 14 VDD P L=1.8e-07 W=4.4e-07 $X=9355 $Y=2535 $D=16
M28 22 10 11 VDD P L=1.8e-07 W=4.4e-07 $X=10815 $Y=2505 $D=16
M29 22 15 VDD VDD P L=1.8e-07 W=4.4e-07 $X=12320 $Y=2505 $D=16
M30 VDD RESETB 22 VDD P L=1.8e-07 W=4.4e-07 $X=13040 $Y=2505 $D=16
M31 16 10 15 VDD P L=1.8e-07 W=4.4e-07 $X=14500 $Y=2505 $D=16
M32 17 16 VDD VDD P L=1.8e-07 W=4.4e-07 $X=15960 $Y=2665 $D=16
M33 VDD RESETB 17 VDD P L=1.8e-07 W=4.4e-07 $X=16680 $Y=2665 $D=16
M34 18 17 VDD VDD P L=1.8e-07 W=4.4e-07 $X=18140 $Y=2725 $D=16
M35 23 18 19 VDD P L=1.8e-07 W=8.8e-07 $X=19640 $Y=2285 $D=16
M36 VDD 14 23 VDD P L=1.8e-07 W=8.8e-07 $X=20360 $Y=2285 $D=16
M37 24 19 VDD VDD P L=1.8e-07 W=4.4e-07 $X=21120 $Y=2505 $D=16
M38 16 CLK 24 VDD P L=1.8e-07 W=4.4e-07 $X=22740 $Y=2505 $D=16
M39 Q 17 VDD VDD P L=1.8e-07 W=4.4e-07 $X=24200 $Y=2505 $D=16
.ENDS
***************************************
.SUBCKT FILL32
** N=8 EP=0 IP=0 FDC=0
.ENDS
***************************************
.SUBCKT ICV_43
** N=4 EP=0 IP=8 FDC=0
.ENDS
***************************************
.SUBCKT FILL16
** N=8 EP=0 IP=0 FDC=0
.ENDS
***************************************
.SUBCKT FILL4
** N=4 EP=0 IP=0 FDC=0
.ENDS
***************************************
.SUBCKT NAND2X1 A B VSS VDD Z
** N=9 EP=5 IP=0 FDC=4
M0 9 A VSS VSS N L=1.8e-07 W=4.4e-07 $X=985 $Y=745 $D=0
M1 Z B 9 VSS N L=1.8e-07 W=4.4e-07 $X=1705 $Y=745 $D=0
M2 Z A VDD VDD P L=1.8e-07 W=4.4e-07 $X=985 $Y=2670 $D=16
M3 VDD B Z VDD P L=1.8e-07 W=4.4e-07 $X=1705 $Y=2670 $D=16
.ENDS
***************************************
.SUBCKT FILL8
** N=8 EP=0 IP=0 FDC=0
.ENDS
***************************************
.SUBCKT FILL1
** N=4 EP=0 IP=0 FDC=0
.ENDS
***************************************
.SUBCKT AND2X1 A B VSS VDD Z
** N=10 EP=5 IP=0 FDC=6
M0 10 A 8 VSS N L=1.8e-07 W=4.4e-07 $X=905 $Y=750 $D=0
M1 VSS B 10 VSS N L=1.8e-07 W=4.4e-07 $X=1625 $Y=750 $D=0
M2 Z 8 VSS VSS N L=1.8e-07 W=2.2e-07 $X=2385 $Y=860 $D=0
M3 8 A VDD VDD P L=1.8e-07 W=4.4e-07 $X=905 $Y=2670 $D=16
M4 VDD B 8 VDD P L=1.8e-07 W=4.4e-07 $X=1625 $Y=2670 $D=16
M5 Z 8 VDD VDD P L=1.8e-07 W=4.4e-07 $X=2385 $Y=2670 $D=16
.ENDS
***************************************
.SUBCKT MUX2X1 A S B VSS VDD Z
** N=16 EP=6 IP=0 FDC=12
M0 VSS S 9 VSS N L=1.8e-07 W=4.4e-07 $X=940 $Y=960 $D=0
M1 15 A VSS VSS N L=1.8e-07 W=4.4e-07 $X=1660 $Y=960 $D=0
M2 10 9 15 VSS N L=1.8e-07 W=4.4e-07 $X=2380 $Y=960 $D=0
M3 16 S 10 VSS N L=1.8e-07 W=4.4e-07 $X=3100 $Y=960 $D=0
M4 VSS B 16 VSS N L=1.8e-07 W=4.4e-07 $X=3920 $Y=740 $D=0
M5 Z 10 VSS VSS N L=1.8e-07 W=4.4e-07 $X=4640 $Y=740 $D=0
M6 VDD S 9 VDD P L=1.8e-07 W=4.4e-07 $X=940 $Y=2520 $D=16
M7 11 A VDD VDD P L=1.8e-07 W=4.4e-07 $X=1660 $Y=2520 $D=16
M8 10 S 11 VDD P L=1.8e-07 W=4.4e-07 $X=2380 $Y=2520 $D=16
M9 12 9 10 VDD P L=1.8e-07 W=4.4e-07 $X=3100 $Y=2520 $D=16
M10 VDD B 12 VDD P L=1.8e-07 W=4.4e-07 $X=3920 $Y=2735 $D=16
M11 Z 10 VDD VDD P L=1.8e-07 W=4.4e-07 $X=4640 $Y=2735 $D=16
.ENDS
***************************************
.SUBCKT NOR2X1 A B VSS VDD Z
** N=10 EP=5 IP=0 FDC=4
M0 Z A VSS VSS N L=1.8e-07 W=2.2e-07 $X=925 $Y=760 $D=0
M1 VSS B Z VSS N L=1.8e-07 W=2.2e-07 $X=1725 $Y=760 $D=0
M2 8 A VDD VDD P L=1.8e-07 W=8.8e-07 $X=925 $Y=2300 $D=16
M3 Z B 8 VDD P L=1.8e-07 W=8.8e-07 $X=1645 $Y=2300 $D=16
.ENDS
***************************************
.SUBCKT INVX2 A VSS VDD Z
** N=6 EP=4 IP=0 FDC=2
M0 Z A VSS VSS N L=1.8e-07 W=4.4e-07 $X=740 $Y=740 $D=0
M1 Z A VDD VDD P L=1.8e-07 W=8.8e-07 $X=740 $Y=2300 $D=16
.ENDS
***************************************
.SUBCKT ICV_52 1 2 3 4 5 6 7 8 9 10 11 12 13 14 15 16 17 18 19 20
+ 21 22 23 24 25 26 27 29
** N=40 EP=28 IP=371 FDC=298
X13 25 24 2 23 1 2 3 DFFQSRX1 $T=339600 317200 0 180 $X=313970 $Y=312645
X14 26 24 2 23 1 2 4 DFFQSRX1 $T=339600 317200 1 180 $X=313970 $Y=316810
X15 27 24 2 23 1 2 5 DFFQSRX1 $T=339600 325040 0 180 $X=313970 $Y=320485
X16 33 24 23 2 1 2 16 DFFQSRX1 $T=619600 317200 1 0 $X=619170 $Y=312645
X17 37 24 23 2 1 2 18 DFFQSRX1 $T=619600 317200 0 0 $X=619170 $Y=316810
X18 29 24 23 2 1 2 21 DFFQSRX1 $T=619600 325040 1 0 $X=619170 $Y=320485
X60 6 3 1 2 7 NAND2X1 $T=387760 325040 1 0 $X=387330 $Y=320485
X61 8 9 1 2 32 NAND2X1 $T=425840 325040 1 0 $X=425410 $Y=320485
X62 32 11 1 2 10 NAND2X1 $T=431440 325040 1 0 $X=431010 $Y=320485
X69 14 13 1 2 12 AND2X1 $T=449920 325040 0 180 $X=446130 $Y=320485
X70 34 15 1 2 33 AND2X1 $T=583200 325040 0 180 $X=579410 $Y=320485
X71 18 16 1 2 19 AND2X1 $T=598320 317200 0 0 $X=597890 $Y=316810
X72 20 15 1 2 37 AND2X1 $T=603920 317200 0 0 $X=603490 $Y=316810
X73 35 17 16 1 2 34 MUX2X1 $T=591040 325040 0 180 $X=585010 $Y=320485
X74 16 18 1 2 36 NOR2X1 $T=594400 317200 1 180 $X=591170 $Y=316810
X75 36 19 1 2 35 NOR2X1 $T=595520 317200 0 0 $X=595090 $Y=316810
X76 22 1 2 23 INVX2 $T=644800 317200 1 0 $X=644370 $Y=312645
.ENDS
***************************************
.SUBCKT ICV_44
** N=4 EP=0 IP=8 FDC=0
.ENDS
***************************************
.SUBCKT ICV_41
** N=4 EP=0 IP=8 FDC=0
.ENDS
***************************************
.SUBCKT ICV_40
** N=4 EP=0 IP=8 FDC=0
.ENDS
***************************************
.SUBCKT ICV_36
** N=4 EP=0 IP=8 FDC=0
.ENDS
***************************************
.SUBCKT ICV_49
** N=4 EP=0 IP=8 FDC=0
.ENDS
***************************************
.SUBCKT ICV_38
** N=4 EP=0 IP=8 FDC=0
.ENDS
***************************************
.SUBCKT ICV_50 1 2 3 4 5
** N=7 EP=5 IP=11 FDC=4
X0 3 4 1 2 5 NAND2X1 $T=1680 0 0 0 $X=1250 $Y=-390
.ENDS
***************************************
.SUBCKT ICV_37
** N=4 EP=0 IP=8 FDC=0
.ENDS
***************************************
.SUBCKT NAND3X1 A B C VSS VDD Z
** N=10 EP=6 IP=0 FDC=6
M0 9 A VSS VSS N L=1.8e-07 W=6.6e-07 $X=1210 $Y=745 $D=0
M1 10 B 9 VSS N L=1.8e-07 W=6.6e-07 $X=1930 $Y=745 $D=0
M2 Z C 10 VSS N L=1.8e-07 W=6.6e-07 $X=2650 $Y=745 $D=0
M3 Z A VDD VDD P L=1.8e-07 W=4.4e-07 $X=1210 $Y=2670 $D=16
M4 VDD B Z VDD P L=1.8e-07 W=4.4e-07 $X=1930 $Y=2670 $D=16
M5 Z C VDD VDD P L=1.8e-07 W=4.4e-07 $X=2650 $Y=2670 $D=16
.ENDS
***************************************
.SUBCKT ICV_42
** N=4 EP=0 IP=8 FDC=0
.ENDS
***************************************
.SUBCKT ICV_48
** N=4 EP=0 IP=8 FDC=0
.ENDS
***************************************
.SUBCKT OR2X1 A B VSS VDD Z
** N=12 EP=5 IP=0 FDC=6
M0 8 A VSS VSS N L=1.8e-07 W=2.2e-07 $X=835 $Y=760 $D=0
M1 VSS B 8 VSS N L=1.8e-07 W=2.2e-07 $X=1635 $Y=760 $D=0
M2 Z 8 VSS VSS N L=1.8e-07 W=2.2e-07 $X=2435 $Y=760 $D=0
M3 9 A 8 VDD P L=1.8e-07 W=8.8e-07 $X=835 $Y=2300 $D=16
M4 VDD B 9 VDD P L=1.8e-07 W=8.8e-07 $X=1555 $Y=2300 $D=16
M5 Z 8 VDD VDD P L=1.8e-07 W=4.4e-07 $X=2315 $Y=2520 $D=16
.ENDS
***************************************
.SUBCKT INVX8 A VSS VDD Z
** N=6 EP=4 IP=0 FDC=8
M0 Z A VSS VSS N L=1.8e-07 W=4.4e-07 $X=740 $Y=760 $D=0
M1 VSS A Z VSS N L=1.8e-07 W=4.4e-07 $X=1460 $Y=760 $D=0
M2 Z A VSS VSS N L=1.8e-07 W=4.4e-07 $X=2180 $Y=760 $D=0
M3 VSS A Z VSS N L=1.8e-07 W=4.4e-07 $X=2900 $Y=760 $D=0
M4 Z A VDD VDD P L=1.8e-07 W=8.8e-07 $X=740 $Y=2300 $D=16
M5 VDD A Z VDD P L=1.8e-07 W=8.8e-07 $X=1460 $Y=2300 $D=16
M6 Z A VDD VDD P L=1.8e-07 W=8.8e-07 $X=2180 $Y=2300 $D=16
M7 VDD A Z VDD P L=1.8e-07 W=8.8e-07 $X=2900 $Y=2300 $D=16
.ENDS
***************************************
.SUBCKT ANTENNA VSS A
** N=5 EP=2 IP=0 FDC=1
*.CALIBRE ISOLATED NETS: VDD
D0 VSS A DN AREA=3.9e-13 PJ=2.54e-06 $X=300 $Y=655 $D=26
.ENDS
***************************************
.SUBCKT XOR2X1 B A VDD VSS Z
** N=11 EP=5 IP=0 FDC=10
M0 VSS B 10 VSS N L=1.8e-07 W=4.4e-07 $X=630 $Y=985 $D=0
M1 8 A VSS VSS N L=1.8e-07 W=4.4e-07 $X=1350 $Y=985 $D=0
M2 9 8 10 VSS N L=1.8e-07 W=4.4e-07 $X=3205 $Y=1000 $D=0
M3 B A 9 VSS N L=1.8e-07 W=4.4e-07 $X=3925 $Y=1000 $D=0
M4 Z 9 VSS VSS N L=1.8e-07 W=4.4e-07 $X=5345 $Y=1000 $D=0
M5 VDD B 10 VDD P L=1.8e-07 W=4.4e-07 $X=630 $Y=2435 $D=16
M6 8 A VDD VDD P L=1.8e-07 W=4.4e-07 $X=1350 $Y=2435 $D=16
M7 9 A 10 VDD P L=1.8e-07 W=4.4e-07 $X=3205 $Y=2435 $D=16
M8 B 8 9 VDD P L=1.8e-07 W=4.4e-07 $X=3925 $Y=2435 $D=16
M9 Z 9 VDD VDD P L=1.8e-07 W=4.4e-07 $X=5345 $Y=2435 $D=16
.ENDS