************************************************************************
* auCdl Netlist:
* 
* Library Name:  bridge_soc_top
* Top Cell Name: bridge_soc_top
* View Name:     schematic
* Netlisted on:  Dec  5 22:38:22 2024
************************************************************************

.INCLUDE  /research/ece/lnis-teaching/Designkits/tsmc180nm/pdk/tsmc18/../Calibre/lvs/source.added
*.EQUATION
*.SCALE METER
*.MEGA
.PARAM

*.GLOBAL VDD!

*.PIN VDD!

************************************************************************
* Library Name: SC_LIB
* Cell Name:    AND2X1
* View Name:    schematic
************************************************************************

.SUBCKT AND2X1 A B VDD VSS Z
*.PININFO A:I B:I Z:O VDD:B VSS:B
MM4 Z net4 VSS VSS N l=180.0n w=220.0n m=1
MM1 net14 B VSS VSS N l=180.0n w=440.0n m=1
MM0 net4 A net14 VSS N l=180.0n w=440.0n m=1
MM5 Z net4 VDD VDD P l=180.0n w=440.0n m=1
MM3 net4 A VDD VDD P l=180.0n w=440.0n m=1
MM2 net4 B VDD VDD P l=180.0n w=440.0n m=1
.ENDS

************************************************************************
* Library Name: SC_LIB
* Cell Name:    MUX2X1
* View Name:    schematic
************************************************************************

.SUBCKT MUX2X1 A B S VDD VSS Z
*.PININFO A:I B:I S:I Z:O VDD:B VSS:B
MM13 SB S VSS VSS N l=180.0n w=440.0n m=1
MM0 Z net2 VSS VSS N l=180.0n w=440.0n m=1
MM7 net2 SB net21 VSS N l=180.0n w=440.0n m=1
MM8 net21 A VSS VSS N l=180.0n w=440.0n m=1
MM9 net22 B VSS VSS N l=180.0n w=440.0n m=1
MM11 net2 S net22 VSS N l=180.0n w=440.0n m=1
MM14 SB S VDD VDD P l=180.0n w=440.0n m=1
MM1 Z net2 VDD VDD P l=180.0n w=440.0n m=1
MM6 net20 A VDD VDD P l=180.0n w=440.0n m=1
MM5 net2 S net20 VDD P l=180.0n w=440.0n m=1
MM10 net23 B VDD VDD P l=180.0n w=440.0n m=1
MM12 net2 SB net23 VDD P l=180.0n w=440.0n m=1
.ENDS

************************************************************************
* Library Name: SC_LIB
* Cell Name:    NOR2X1
* View Name:    schematic
************************************************************************

.SUBCKT NOR2X1 A B VDD VSS Z
*.PININFO A:I B:I Z:O VDD:B VSS:B
MM7 Z A VSS VSS N l=180.0n w=220.0n m=1
MM4 Z B VSS VSS N l=180.0n w=220.0n m=1
MM6 net9 A VDD VDD P l=180.0n w=880.0n m=1
MM5 Z B net9 VDD P l=180.0n w=880.0n m=1
.ENDS

************************************************************************
* Library Name: SC_LIB
* Cell Name:    NAND2X1
* View Name:    schematic
************************************************************************

.SUBCKT NAND2X1 A B VDD VSS Z
*.PININFO A:I B:I Z:O VDD:B VSS:B
MM1 net9 B VSS VSS N l=180.0n w=440.0n m=1
MM0 Z A net9 VSS N l=180.0n w=440.0n m=1
MM3 Z A VDD VDD P l=180.0n w=440.0n m=1
MM2 Z B VDD VDD P l=180.0n w=440.0n m=1
.ENDS

************************************************************************
* Library Name: SC_LIB
* Cell Name:    OR2X1
* View Name:    schematic
************************************************************************

.SUBCKT OR2X1 A B VDD VSS Z
*.PININFO A:I B:I Z:O VDD:B VSS:B
MM7 net8 A VSS VSS N l=180.0n w=220.0n m=1
MM4 net8 B VSS VSS N l=180.0n w=220.0n m=1
MM0 Z net8 VSS VSS N l=180.0n w=220.0n m=1
MM6 net12 A VDD VDD P l=180.0n w=880.0n m=1
MM5 net8 B net12 VDD P l=180.0n w=880.0n m=1
MM1 Z net8 VDD VDD P l=180.0n w=440.0n m=1
.ENDS

************************************************************************
* Library Name: SC_LIB
* Cell Name:    INVX1
* View Name:    schematic
************************************************************************

.SUBCKT INVX1 A VDD VSS Z
*.PININFO A:I Z:O VDD:B VSS:B
MM2 Z A VSS VSS N l=180.0n w=220.0n m=1
MM0 Z A VDD VDD P l=180.0n w=440.0n m=1
.ENDS

************************************************************************
* Library Name: SC_LIB
* Cell Name:    INVX2
* View Name:    schematic
************************************************************************

.SUBCKT INVX2 A VDD VSS Z
*.PININFO A:I Z:O VDD:B VSS:B
MM0 Z A VSS VSS N l=180.0n w=440.0n m=1
MM1 Z A VDD VDD P l=180.0n w=880.0n m=1
.ENDS

************************************************************************
* Library Name: SC_LIB
* Cell Name:    INVX8
* View Name:    schematic
************************************************************************

.SUBCKT INVX8 A VDD VSS Z
*.PININFO A:I Z:O VDD:B VSS:B
MM0 Z A VSS VSS N l=180.0n w=1.76u m=1
MM1 Z A VDD VDD P l=180.0n w=3.52u m=1
.ENDS

************************************************************************
* Library Name: SC_LIB
* Cell Name:    XOR2X1
* View Name:    schematic
************************************************************************

.SUBCKT XOR2X1 A B VDD VSS Z
*.PININFO A:I B:I Z:O VDD:B VSS:B
MM11 net3 A B VSS N l=180.0n w=440.0n m=1
MM10 net3 AB BB VSS N l=180.0n w=440.0n m=1
MM12 BB B VSS VSS N l=180.0n w=440.0n m=1
MM13 Z net3 VSS VSS N l=180.0n w=440.0n m=1
MM0 AB A VSS VSS N l=180.0n w=440.0n m=1
MM3 B AB net3 VDD P l=180.0n w=440.0n m=1
MM2 BB A net3 VDD P l=180.0n w=440.0n m=1
MM1 AB A VDD VDD P l=180.0n w=440.0n m=1
MM4 BB B VDD VDD P l=180.0n w=440.0n m=1
MM5 Z net3 VDD VDD P l=180.0n w=440.0n m=1
.ENDS

************************************************************************
* Library Name: SC_LIB
* Cell Name:    NAND3X1
* View Name:    schematic
************************************************************************

.SUBCKT NAND3X1 A B C VDD VSS Z
*.PININFO A:I B:I C:I Z:O VDD:B VSS:B
MM5 net10 C VSS VSS N l=180.0n w=660.0n m=1
MM1 net13 B net10 VSS N l=180.0n w=660.0n m=1
MM0 Z A net13 VSS N l=180.0n w=660.0n m=1
MM4 Z C VDD VDD P l=180.0n w=440.0n m=1
MM3 Z A VDD VDD P l=180.0n w=440.0n m=1
MM2 Z B VDD VDD P l=180.0n w=440.0n m=1
.ENDS

************************************************************************
* Library Name: SC_LIB
* Cell Name:    INVX4
* View Name:    schematic
************************************************************************

.SUBCKT INVX4 A VDD VSS Z
*.PININFO A:I Z:O VDD:B VSS:B
MM0 Z A VSS VSS N l=180.0n w=880.0n m=1
MM1 Z A VDD VDD P l=180.0n w=1.76u m=1
.ENDS

************************************************************************
* Library Name: SC_LIB
* Cell Name:    DFFQSRX1
* View Name:    schematic
************************************************************************

.SUBCKT DFFQSRX1 CLK D Q RESETB SETB VDD VSS
*.PININFO CLK:I D:I RESETB:I SETB:I Q:O VDD:B VSS:B
XI16 net18 RESETB VDD VSS net31 / NAND2X1
XI11 CLK VDD VSS CLKB / INVX1
XI19 SETB VDD VSS SET / INVX1
XI14 SET net10 VDD VSS net15 / OR2X1
MM43 net18 CLKB net020 VSS N l=180.0n w=220.0n m=1
MM41 net4 CLK net012 VSS N l=180.0n w=220.0n m=1
MM32 Q net31 VSS VSS N l=180.0n w=220.0n m=1
MM34 net27 net31 VSS VSS N l=180.0n w=220.0n m=1
MM4 net20 SET VSS VSS N l=180.0n w=220.0n m=1
MM37 net012 net15 net65 VSS N l=180.0n w=440.0n m=1
MM7 net20 net27 VSS VSS N l=180.0n w=220.0n m=1
MM38 net020 net20 VSS VSS N l=180.0n w=220.0n m=1
MM28 net10 net4 VSS VSS N l=180.0n w=220.0n m=1
MM25 net15 CLK net18 VSS N l=180.0n w=220.0n m=1
MM1 net65 RESETB VSS VSS N l=180.0n w=440.0n m=1
MM0 net1 CLKB net4 VSS N l=180.0n w=220.0n m=1
MM10 net1 D VSS VSS N l=180.0n w=220.0n m=1
MM44 net020 CLK net18 VDD P l=180.0n w=440.0n m=1
MM42 net012 CLKB net4 VDD P l=180.0n w=440.0n m=1
MM31 Q net31 VDD VDD P l=180.0n w=440.0n m=1
MM33 net27 net31 VDD VDD P l=180.0n w=440.0n m=1
MM6 net64 net27 VDD VDD P l=180.0n w=880.0n m=1
MM5 net20 SET net64 VDD P l=180.0n w=880.0n m=1
MM39 net020 net20 VDD VDD P l=180.0n w=440.0n m=1
MM3 net012 net15 VDD VDD P l=180.0n w=440.0n m=1
MM36 net012 RESETB VDD VDD P l=180.0n w=440.0n m=1
MM11 net1 D VDD VDD P l=180.0n w=440.0n m=1
MM27 net10 net4 VDD VDD P l=180.0n w=440.0n m=1
MM2 net4 CLK net1 VDD P l=180.0n w=440.0n m=1
MM26 net18 CLKB net15 VDD P l=180.0n w=440.0n m=1
.ENDS

************************************************************************
* Library Name: PADS_LIB
* Cell Name:    pad_in
* View Name:    schematic
************************************************************************

.SUBCKT pad_in DataIn VDD VSS pad
*.PININFO DataIn:O VDD:B VSS:B pad:B
MM42 net173 OE net172 VSS N l=350.0n w=36.0u m=1
MM7 pad net172 VSS VSS N l=350.0n w=400.0000u m=1
MM11 OEB VSS VSS VSS N l=350.0n w=9u m=1
MM6 net172 OEB VSS VSS N l=350.0n w=45.0u m=1
MM4 OE OEB VSS VSS N l=350.0n w=9u m=1
MM5 net172 VSS VSS VSS N l=350.0n w=45.0u m=1
MM41 net027 pad VSS VSS N l=350.0n w=54.0u m=1
MM40 DataIn net027 VSS VSS N l=350.0n w=54.0u m=1
MM18 net173 OE VDD VDD P l=350.0n w=78.0u m=1
MM19 pad net173 VDD VDD P l=350.0n w=400.0000u m=1
MM15 net173 VSS VDD VDD P l=350.0n w=78.0u m=1
MM38 net027 pad VDD VDD P l=350.0n w=93.6u m=1
MM39 DataIn net027 VDD VDD P l=350.0n w=93.6u m=1
MM16 net172 OEB net173 VDD P l=350.0n w=62.4u m=1
MM12 OE OEB VDD VDD P l=350.0n w=15.6u m=1
MM0 OEB VSS VDD VDD P l=350.0n w=15.6u m=1
.ENDS

************************************************************************
* Library Name: PADS_LIB
* Cell Name:    pad_out
* View Name:    schematic
************************************************************************

.SUBCKT pad_out DataOut VDD VSS pad
*.PININFO DataOut:I VDD:B VSS:B pad:B
MM21 net090 OE net089 VSS N l=350.0n w=36.0u m=1
MM13 pad net089 VSS VSS N l=350.0n w=400.0000u m=1
MM10 OEB VDD VSS VSS N l=350.0n w=9u m=1
MM9 net089 OEB VSS VSS N l=350.0n w=45.0u m=1
MM8 OE OEB VSS VSS N l=350.0n w=9u m=1
MM2 net096 pad VSS VSS N l=350.0n w=54.0u m=1
MM1 net099 net096 VSS VSS N l=350.0n w=54.0u m=1
MM3 net089 DataOut VSS VSS N l=350.0n w=45.0u m=1
MM26 net090 OE VDD VDD P l=350.0n w=78.0u m=1
MM25 pad net090 VDD VDD P l=350.0n w=400.0000u m=1
MM24 net090 DataOut VDD VDD P l=350.0n w=78.0u m=1
MM23 net096 pad VDD VDD P l=350.0n w=93.6u m=1
MM22 net099 net096 VDD VDD P l=350.0n w=93.6u m=1
MM20 net089 OEB net090 VDD P l=350.0n w=62.4u m=1
MM17 OE OEB VDD VDD P l=350.0n w=15.6u m=1
MM14 OEB VDD VDD VDD P l=350.0n w=15.6u m=1
.ENDS

************************************************************************
* Library Name: PADS_LIB
* Cell Name:    pad_gnd
* View Name:    schematic
************************************************************************

.SUBCKT pad_gnd VDD VSS
*.PININFO VDD:B VSS:B
DD1 VSS VDD pdio_m area=9e-10 m=1
.ENDS

************************************************************************
* Library Name: PADS_LIB
* Cell Name:    pad_vdd
* View Name:    schematic
************************************************************************

.SUBCKT pad_vdd VDD VSS
*.PININFO VDD:B VSS:B
DD0 VSS VDD ndio_m area=9e-10 m=1
.ENDS

************************************************************************
* Library Name: PADS_LIB
* Cell Name:    pad_corner
* View Name:    schematic
************************************************************************

.SUBCKT pad_corner VDD VSS
*.PININFO VDD:B VSS:B
.ENDS

************************************************************************
* Library Name: SC_LIB
* Cell Name:    ANTENNA
* View Name:    schematic
************************************************************************

.SUBCKT ANTENNA A VDD VSS
*.PININFO A:I VDD:B VSS:B
DD1 VSS A DN area=3.9e-13 m=1
.ENDS

************************************************************************
* Library Name: bridge_soc_top
* Cell Name:    bridge_soc_top
* View Name:    schematic
************************************************************************

.SUBCKT bridge_soc_top Bridge_Can_out Bridge_Serial_out Can_rx R_byte 
+ Serial_in T_byte clock reset
*.PININFO Can_rx:I R_byte:I Serial_in:I T_byte:I clock:I reset:I 
*.PININFO Bridge_Can_out:O Bridge_Serial_out:O
Xg9958__4319 n_760 n_830 VDD! VSS n_768 / AND2X1
Xg10100__6260 n_635 n_830 VDD! VSS n_741 / AND2X1
Xg10169__2398 n_378 n_830 VDD! VSS n_686 / AND2X1
Xg10468__1617 n_359 n_830 VDD! VSS n_425 / AND2X1
Xg10610__2346 n_326 soc_uart_rx_inst_state<1> VDD! VSS n_349 / AND2X1
Xg10641__1881 n_327 soc_can_index<2> VDD! VSS n_366 / AND2X1
Xg10666__4319 n_71 n_7 VDD! VSS n_311 / AND2X1
Xg10672__2802 n_47 n_100 VDD! VSS n_305 / AND2X1
Xg10739__9315 n_85 n_101 VDD! VSS n_238 / AND2X1
Xg10754__3680 n_43 n_55 VDD! VSS n_223 / AND2X1
Xg10756__2802 n_40 n_52 VDD! VSS n_221 / AND2X1
Xg10757__1705 n_53 n_59 VDD! VSS n_220 / AND2X1
Xg10758__5122 n_51 n_41 VDD! VSS n_219 / AND2X1
Xg10759__8246 n_58 n_57 VDD! VSS n_218 / AND2X1
Xg10761__6131 n_68 soc_can_index<1> VDD! VSS n_327 / AND2X1
Xg10763__5115 n_64 soc_uart_tx_inst_Status_reg<2> VDD! VSS n_324 / AND2X1
Xg10764__7482 n_65 soc_can_tx_inst_status_reg<2> VDD! VSS n_323 / AND2X1
Xg10773__6417 n_54 n_61 VDD! VSS n_209 / AND2X1
Xg10884__5115 n_20 soc_uart_tx_inst_shift_reg<9> VDD! VSS n_102 / AND2X1
Xg10924__9945 soc_uart_data_ready soc_Load_frame_datareg VDD! VSS n_62 / AND2X1
Xg10955__1666 soc_uart_rx_inst_bit_count<0> rbyte_PAD VDD! VSS n_69 / AND2X1
Xg10956__7410 soc_can_index<0> soc_uart_data_ready VDD! VSS n_68 / AND2X1
Xg10958__5477 soc_can_tx_inst_status_reg<0> soc_can_tx_inst_status_reg<1> VDD! 
+ VSS n_65 / AND2X1
Xg10959__2398 soc_uart_tx_inst_Status_reg<0> soc_uart_tx_inst_Status_reg<1> 
+ VDD! VSS n_64 / AND2X1
Xg11076 n_365 soc_can_tx_inst_status_reg<4> VDD! VSS n_847 / AND2X1
Xg11078 n_13 n_323 VDD! VSS n_849 / AND2X1
Xg11082 soc_can_tx_inst_status_reg<0> n_13 VDD! VSS n_853 / AND2X1
Xg9952__7410 n_365 n_650 soc_can_tx_inst_status_reg<4> VDD! VSS n_774 / MUX2X1
Xg9953__6417 soc_Can_rx_data_Bus<7> soc_can_rx_inst_shift_reg<67> n_688 VDD! 
+ VSS n_773 / MUX2X1
Xg9954__5477 soc_Can_rx_data_Bus<6> soc_can_rx_inst_shift_reg<66> n_688 VDD! 
+ VSS n_772 / MUX2X1
Xg9959__8428 soc_Can_rx_data_Bus<1> soc_can_rx_inst_shift_reg<61> n_688 VDD! 
+ VSS n_767 / MUX2X1
Xg9960__5526 soc_Can_rx_data_Bus<2> soc_can_rx_inst_shift_reg<62> n_688 VDD! 
+ VSS n_766 / MUX2X1
Xg9961__6783 soc_Can_rx_data_Bus<0> soc_can_rx_inst_shift_reg<60> n_688 VDD! 
+ VSS n_765 / MUX2X1
Xg9962__3680 soc_Can_rx_data_Bus<3> soc_can_rx_inst_shift_reg<63> n_688 VDD! 
+ VSS n_764 / MUX2X1
Xg9963__1617 soc_Can_rx_data_Bus<5> soc_can_rx_inst_shift_reg<65> n_688 VDD! 
+ VSS n_763 / MUX2X1
Xg9964__2802 soc_Can_rx_data_Bus<4> soc_can_rx_inst_shift_reg<64> n_688 VDD! 
+ VSS n_762 / MUX2X1
Xg10081__5122 n_367 soc_uart_tx_inst_Status_reg<3> n_104 VDD! VSS n_760 / 
+ MUX2X1
Xg10239__2802 n_15 n_217 soc_can_rx_inst_bit_count<0> VDD! VSS n_649 / MUX2X1
Xg10253__2346 n_355 soc_uart_tx_inst_Status_reg<2> n_104 VDD! VSS n_635 / 
+ MUX2X1
Xg10254__1666 soc_uart_rx_inst_shift_reg<1> soc_uart_rx_data_bus<0> n_363 VDD! 
+ VSS n_634 / MUX2X1
Xg10255__7410 soc_uart_rx_inst_shift_reg<2> soc_uart_rx_data_bus<1> n_363 VDD! 
+ VSS n_633 / MUX2X1
Xg10256__6417 soc_uart_rx_inst_shift_reg<3> soc_uart_rx_data_bus<2> n_363 VDD! 
+ VSS n_632 / MUX2X1
Xg10257__5477 soc_uart_rx_inst_shift_reg<4> soc_uart_rx_data_bus<3> n_363 VDD! 
+ VSS n_631 / MUX2X1
Xg10258__2398 soc_uart_rx_inst_shift_reg<5> soc_uart_rx_data_bus<4> n_363 VDD! 
+ VSS n_630 / MUX2X1
Xg10259__5107 soc_uart_rx_inst_shift_reg<6> soc_uart_rx_data_bus<5> n_363 VDD! 
+ VSS n_629 / MUX2X1
Xg10260__6260 soc_uart_rx_inst_shift_reg<7> soc_uart_rx_data_bus<6> n_363 VDD! 
+ VSS n_628 / MUX2X1
Xg10261__4319 soc_uart_rx_inst_shift_reg<8> soc_uart_rx_data_bus<7> n_363 VDD! 
+ VSS n_627 / MUX2X1
Xg10262__8428 soc_can_rx_inst_shift_reg<78> soc_can_rx_inst_shift_reg<79> n_15 
+ VDD! VSS n_626 / MUX2X1
Xg10263__5526 soc_can_rx_inst_shift_reg<79> soc_can_rx_inst_shift_reg<80> n_15 
+ VDD! VSS n_625 / MUX2X1
Xg10264__6783 soc_can_rx_inst_shift_reg<80> soc_can_rx_inst_shift_reg<81> n_15 
+ VDD! VSS n_624 / MUX2X1
Xg10265__3680 soc_can_rx_inst_shift_reg<81> soc_can_rx_inst_shift_reg<82> n_15 
+ VDD! VSS n_623 / MUX2X1
Xg10266__1617 soc_can_rx_inst_shift_reg<83> soc_can_rx_inst_shift_reg<84> n_15 
+ VDD! VSS n_622 / MUX2X1
Xg10267__2802 soc_can_rx_inst_shift_reg<82> soc_can_rx_inst_shift_reg<83> n_15 
+ VDD! VSS n_621 / MUX2X1
Xg10268__1705 soc_can_rx_inst_shift_reg<84> soc_can_rx_inst_shift_reg<85> n_15 
+ VDD! VSS n_620 / MUX2X1
Xg10269__5122 soc_can_rx_inst_shift_reg<85> soc_can_rx_inst_shift_reg<86> n_15 
+ VDD! VSS n_619 / MUX2X1
Xg10270__8246 soc_can_rx_inst_shift_reg<86> soc_can_rx_inst_shift_reg<87> n_15 
+ VDD! VSS n_618 / MUX2X1
Xg10271__7098 soc_can_rx_inst_shift_reg<87> soc_can_rx_inst_shift_reg<88> n_15 
+ VDD! VSS n_617 / MUX2X1
Xg10272__6131 soc_can_rx_inst_shift_reg<88> soc_can_rx_inst_shift_reg<89> n_15 
+ VDD! VSS n_616 / MUX2X1
Xg10273__1881 soc_can_rx_inst_shift_reg<89> soc_can_rx_inst_shift_reg<90> n_15 
+ VDD! VSS n_615 / MUX2X1
Xg10274__5115 soc_can_rx_inst_shift_reg<90> soc_can_rx_inst_shift_reg<91> n_15 
+ VDD! VSS n_614 / MUX2X1
Xg10275__7482 soc_can_rx_inst_shift_reg<91> soc_can_rx_inst_shift_reg<92> n_15 
+ VDD! VSS n_613 / MUX2X1
Xg10276__4733 soc_can_rx_inst_shift_reg<92> soc_can_rx_inst_shift_reg<93> n_15 
+ VDD! VSS n_612 / MUX2X1
Xg10277__6161 soc_can_rx_inst_shift_reg<93> soc_can_rx_inst_shift_reg<94> n_15 
+ VDD! VSS n_611 / MUX2X1
Xg10278__9315 soc_can_rx_inst_shift_reg<94> soc_can_rx_inst_shift_reg<95> n_15 
+ VDD! VSS n_610 / MUX2X1
Xg10279__9945 soc_can_rx_inst_shift_reg<95> soc_can_rx_inst_shift_reg<96> n_15 
+ VDD! VSS n_609 / MUX2X1
Xg10280__2883 soc_can_rx_inst_shift_reg<96> soc_can_rx_inst_shift_reg<97> n_15 
+ VDD! VSS n_608 / MUX2X1
Xg10281__2346 soc_can_rx_inst_shift_reg<60> soc_can_rx_inst_shift_reg<61> n_15 
+ VDD! VSS n_607 / MUX2X1
Xg10282__1666 soc_can_rx_inst_shift_reg<97> soc_can_rx_inst_shift_reg<98> n_15 
+ VDD! VSS n_606 / MUX2X1
Xg10283__7410 soc_can_rx_inst_shift_reg<98> soc_can_rx_inst_shift_reg<99> n_15 
+ VDD! VSS n_605 / MUX2X1
Xg10284__6417 soc_can_rx_inst_shift_reg<61> soc_can_rx_inst_shift_reg<62> n_15 
+ VDD! VSS n_604 / MUX2X1
Xg10285__5477 soc_can_rx_inst_shift_reg<99> soc_can_rx_inst_shift_reg<100> 
+ n_15 VDD! VSS n_603 / MUX2X1
Xg10286__2398 soc_can_rx_inst_shift_reg<100> soc_can_rx_inst_shift_reg<101> 
+ n_15 VDD! VSS n_602 / MUX2X1
Xg10287__5107 soc_can_rx_inst_shift_reg<62> soc_can_rx_inst_shift_reg<63> n_15 
+ VDD! VSS n_601 / MUX2X1
Xg10288__6260 soc_can_rx_inst_shift_reg<101> soc_can_rx_inst_shift_reg<102> 
+ n_15 VDD! VSS n_600 / MUX2X1
Xg10289__4319 soc_can_rx_inst_shift_reg<63> soc_can_rx_inst_shift_reg<64> n_15 
+ VDD! VSS n_599 / MUX2X1
Xg10290__8428 soc_can_rx_inst_shift_reg<102> soc_can_rx_inst_shift_reg<103> 
+ n_15 VDD! VSS n_598 / MUX2X1
Xg10291__5526 soc_can_rx_inst_shift_reg<103> soc_can_rx_inst_shift_reg<104> 
+ n_15 VDD! VSS n_597 / MUX2X1
Xg10292__6783 soc_can_rx_inst_shift_reg<64> soc_can_rx_inst_shift_reg<65> n_15 
+ VDD! VSS n_596 / MUX2X1
Xg10293__3680 soc_can_rx_inst_shift_reg<104> soc_can_rx_inst_shift_reg<105> 
+ n_15 VDD! VSS n_595 / MUX2X1
Xg10294__1617 soc_can_rx_inst_shift_reg<65> soc_can_rx_inst_shift_reg<66> n_15 
+ VDD! VSS n_594 / MUX2X1
Xg10295__2802 soc_can_rx_inst_shift_reg<105> soc_can_rx_inst_shift_reg<106> 
+ n_15 VDD! VSS n_593 / MUX2X1
Xg10296__1705 soc_can_rx_inst_shift_reg<106> can_rx_PAD n_15 VDD! VSS n_592 / 
+ MUX2X1
Xg10297__5122 soc_can_rx_inst_shift_reg<66> soc_can_rx_inst_shift_reg<67> n_15 
+ VDD! VSS n_591 / MUX2X1
Xg10298__8246 soc_can_rx_inst_shift_reg<67> soc_can_rx_inst_shift_reg<68> n_15 
+ VDD! VSS n_590 / MUX2X1
Xg10299__7098 soc_can_rx_inst_shift_reg<68> soc_can_rx_inst_shift_reg<69> n_15 
+ VDD! VSS n_589 / MUX2X1
Xg10300__6131 soc_can_rx_inst_shift_reg<69> soc_can_rx_inst_shift_reg<70> n_15 
+ VDD! VSS n_588 / MUX2X1
Xg10301__1881 soc_can_rx_inst_shift_reg<70> soc_can_rx_inst_shift_reg<71> n_15 
+ VDD! VSS n_587 / MUX2X1
Xg10302__5115 soc_can_rx_inst_shift_reg<71> soc_can_rx_inst_shift_reg<72> n_15 
+ VDD! VSS n_586 / MUX2X1
Xg10303__7482 soc_can_rx_inst_shift_reg<72> soc_can_rx_inst_shift_reg<73> n_15 
+ VDD! VSS n_585 / MUX2X1
Xg10304__4733 soc_can_rx_inst_shift_reg<73> soc_can_rx_inst_shift_reg<74> n_15 
+ VDD! VSS n_584 / MUX2X1
Xg10305__6161 soc_can_rx_inst_shift_reg<74> soc_can_rx_inst_shift_reg<75> n_15 
+ VDD! VSS n_583 / MUX2X1
Xg10306__9315 soc_can_rx_inst_shift_reg<75> soc_can_rx_inst_shift_reg<76> n_15 
+ VDD! VSS n_582 / MUX2X1
Xg10307__9945 soc_can_rx_inst_shift_reg<76> soc_can_rx_inst_shift_reg<77> n_15 
+ VDD! VSS n_581 / MUX2X1
Xg10308__2883 soc_can_rx_inst_shift_reg<77> soc_can_rx_inst_shift_reg<78> n_15 
+ VDD! VSS n_580 / MUX2X1
Xg10309__2346 n_357 soc_uart_tx_inst_n_126 n_67 VDD! VSS n_579 / MUX2X1
Xg10515__5477 n_188 soc_uart_tx_inst_Status_reg<1> n_104 VDD! VSS n_378 / 
+ MUX2X1
Xg10516__2398 soc_uart_rx_inst_shift_reg<8> soc_uart_rx_inst_shift_reg<9> 
+ n_321 VDD! VSS n_377 / MUX2X1
Xg10517__5107 soc_uart_rx_inst_shift_reg<5> soc_uart_rx_inst_shift_reg<6> 
+ n_321 VDD! VSS n_376 / MUX2X1
Xg10518__6260 soc_uart_rx_inst_shift_reg<1> soc_uart_rx_inst_shift_reg<2> 
+ n_321 VDD! VSS n_375 / MUX2X1
Xg10519__4319 soc_uart_rx_inst_shift_reg<2> soc_uart_rx_inst_shift_reg<3> 
+ n_321 VDD! VSS n_374 / MUX2X1
Xg10520__8428 soc_uart_rx_inst_shift_reg<3> soc_uart_rx_inst_shift_reg<4> 
+ n_321 VDD! VSS n_373 / MUX2X1
Xg10521__5526 soc_uart_rx_inst_shift_reg<4> soc_uart_rx_inst_shift_reg<5> 
+ n_321 VDD! VSS n_372 / MUX2X1
Xg10522__6783 soc_uart_rx_inst_shift_reg<6> soc_uart_rx_inst_shift_reg<7> 
+ n_321 VDD! VSS n_371 / MUX2X1
Xg10523__3680 soc_uart_rx_inst_shift_reg<7> soc_uart_rx_inst_shift_reg<8> 
+ n_321 VDD! VSS n_370 / MUX2X1
Xg10524__1617 soc_uart_rx_inst_shift_reg<9> ser_rx_PAD n_321 VDD! VSS n_369 / 
+ MUX2X1
Xg10525__2802 n_321 n_239 soc_uart_rx_inst_bit_count<0> VDD! VSS n_368 / MUX2X1
Xg10601__6131 n_13 n_5 soc_can_tx_inst_status_reg<0> VDD! VSS n_358 / MUX2X1
Xg10602__1881 soc_uart_tx_inst_shift_reg<1> soc_uart_tx_inst_shift_reg<0> 
+ n_104 VDD! VSS n_357 / MUX2X1
Xg10766__6161 soc_can_tx_data_bus<40> soc_can_tx_data_bus<32> 
+ soc_uart_data_ready VDD! VSS n_216 / MUX2X1
Xg10796__9945 soc_can_tx_data_bus<20> soc_can_tx_data_bus<12> 
+ soc_uart_data_ready VDD! VSS n_186 / MUX2X1
Xg10797__2883 soc_can_tx_data_bus<6> soc_uart_rx_data_bus<6> 
+ soc_uart_data_ready VDD! VSS n_185 / MUX2X1
Xg10798__2346 soc_can_tx_data_bus<21> soc_can_tx_data_bus<13> 
+ soc_uart_data_ready VDD! VSS n_184 / MUX2X1
Xg10799__1666 soc_can_tx_data_bus<22> soc_can_tx_data_bus<14> 
+ soc_uart_data_ready VDD! VSS n_183 / MUX2X1
Xg10800__7410 soc_can_tx_data_bus<23> soc_can_tx_data_bus<15> 
+ soc_uart_data_ready VDD! VSS n_182 / MUX2X1
Xg10801__6417 soc_can_tx_data_bus<32> soc_can_tx_data_bus<24> 
+ soc_uart_data_ready VDD! VSS n_181 / MUX2X1
Xg10802__5477 soc_can_tx_data_bus<24> soc_can_tx_data_bus<16> 
+ soc_uart_data_ready VDD! VSS n_180 / MUX2X1
Xg10803__2398 soc_can_tx_data_bus<25> soc_can_tx_data_bus<17> 
+ soc_uart_data_ready VDD! VSS n_179 / MUX2X1
Xg10804__5107 soc_can_tx_data_bus<26> soc_can_tx_data_bus<18> 
+ soc_uart_data_ready VDD! VSS n_178 / MUX2X1
Xg10805__6260 soc_can_tx_data_bus<2> soc_uart_rx_data_bus<2> 
+ soc_uart_data_ready VDD! VSS n_177 / MUX2X1
Xg10806__4319 soc_can_tx_data_bus<27> soc_can_tx_data_bus<19> 
+ soc_uart_data_ready VDD! VSS n_176 / MUX2X1
Xg10807__8428 soc_can_tx_data_bus<38> soc_can_tx_data_bus<30> 
+ soc_uart_data_ready VDD! VSS n_175 / MUX2X1
Xg10808__5526 soc_can_tx_data_bus<29> soc_can_tx_data_bus<21> 
+ soc_uart_data_ready VDD! VSS n_174 / MUX2X1
Xg10809__6783 soc_can_tx_data_bus<44> soc_can_tx_data_bus<36> 
+ soc_uart_data_ready VDD! VSS n_173 / MUX2X1
Xg10810__3680 soc_can_tx_data_bus<30> soc_can_tx_data_bus<22> 
+ soc_uart_data_ready VDD! VSS n_172 / MUX2X1
Xg10811__1617 soc_can_tx_data_bus<31> soc_can_tx_data_bus<23> 
+ soc_uart_data_ready VDD! VSS n_171 / MUX2X1
Xg10812__2802 soc_can_tx_data_bus<62> soc_can_tx_data_bus<54> 
+ soc_uart_data_ready VDD! VSS n_170 / MUX2X1
Xg10813__1705 soc_can_tx_data_bus<33> soc_can_tx_data_bus<25> 
+ soc_uart_data_ready VDD! VSS n_169 / MUX2X1
Xg10814__5122 soc_can_tx_data_bus<34> soc_can_tx_data_bus<26> 
+ soc_uart_data_ready VDD! VSS n_168 / MUX2X1
Xg10815__8246 soc_can_tx_data_bus<35> soc_can_tx_data_bus<27> 
+ soc_uart_data_ready VDD! VSS n_167 / MUX2X1
Xg10816__7098 soc_can_tx_data_bus<37> soc_can_tx_data_bus<29> 
+ soc_uart_data_ready VDD! VSS n_166 / MUX2X1
Xg10817__6131 soc_can_tx_data_bus<61> soc_can_tx_data_bus<53> 
+ soc_uart_data_ready VDD! VSS n_165 / MUX2X1
Xg10818__1881 soc_can_tx_data_bus<1> soc_uart_rx_data_bus<1> 
+ soc_uart_data_ready VDD! VSS n_164 / MUX2X1
Xg10819__5115 soc_can_tx_data_bus<36> soc_can_tx_data_bus<28> 
+ soc_uart_data_ready VDD! VSS n_163 / MUX2X1
Xg10821__4733 soc_can_tx_data_bus<28> soc_can_tx_data_bus<20> 
+ soc_uart_data_ready VDD! VSS n_161 / MUX2X1
Xg10822__6161 soc_can_tx_data_bus<42> soc_can_tx_data_bus<34> 
+ soc_uart_data_ready VDD! VSS n_160 / MUX2X1
Xg10823__9315 soc_can_tx_data_bus<43> soc_can_tx_data_bus<35> 
+ soc_uart_data_ready VDD! VSS n_159 / MUX2X1
Xg10824__9945 soc_can_tx_data_bus<60> soc_can_tx_data_bus<52> 
+ soc_uart_data_ready VDD! VSS n_158 / MUX2X1
Xg10825__2883 soc_can_tx_data_bus<45> soc_can_tx_data_bus<37> 
+ soc_uart_data_ready VDD! VSS n_157 / MUX2X1
Xg10826__2346 soc_can_tx_data_bus<47> soc_can_tx_data_bus<39> 
+ soc_uart_data_ready VDD! VSS n_156 / MUX2X1
Xg10827__1666 soc_can_tx_data_bus<49> soc_can_tx_data_bus<41> 
+ soc_uart_data_ready VDD! VSS n_155 / MUX2X1
Xg10828__7410 soc_can_tx_data_bus<59> soc_can_tx_data_bus<51> 
+ soc_uart_data_ready VDD! VSS n_154 / MUX2X1
Xg10829__6417 soc_can_tx_data_bus<50> soc_can_tx_data_bus<42> 
+ soc_uart_data_ready VDD! VSS n_153 / MUX2X1
Xg10830__5477 soc_can_tx_data_bus<51> soc_can_tx_data_bus<43> 
+ soc_uart_data_ready VDD! VSS n_152 / MUX2X1
Xg10831__2398 soc_can_tx_data_bus<53> soc_can_tx_data_bus<45> 
+ soc_uart_data_ready VDD! VSS n_151 / MUX2X1
Xg10832__5107 soc_can_tx_data_bus<58> soc_can_tx_data_bus<50> 
+ soc_uart_data_ready VDD! VSS n_150 / MUX2X1
Xg10833__6260 soc_can_tx_data_bus<54> soc_can_tx_data_bus<46> 
+ soc_uart_data_ready VDD! VSS n_149 / MUX2X1
Xg10834__4319 soc_can_tx_data_bus<3> soc_uart_rx_data_bus<3> 
+ soc_uart_data_ready VDD! VSS n_148 / MUX2X1
Xg10835__8428 soc_can_tx_data_bus<63> soc_can_tx_data_bus<55> 
+ soc_uart_data_ready VDD! VSS n_147 / MUX2X1
Xg10836__5526 soc_can_tx_data_bus<57> soc_can_tx_data_bus<49> 
+ soc_uart_data_ready VDD! VSS n_146 / MUX2X1
Xg10837__6783 soc_can_tx_data_bus<5> soc_uart_rx_data_bus<5> 
+ soc_uart_data_ready VDD! VSS n_145 / MUX2X1
Xg10838__3680 soc_can_tx_data_bus<46> soc_can_tx_data_bus<38> 
+ soc_uart_data_ready VDD! VSS n_144 / MUX2X1
Xg10839__1617 soc_can_tx_data_bus<39> soc_can_tx_data_bus<31> 
+ soc_uart_data_ready VDD! VSS n_143 / MUX2X1
Xg10840__2802 soc_can_tx_data_bus<41> soc_can_tx_data_bus<33> 
+ soc_uart_data_ready VDD! VSS n_142 / MUX2X1
Xg10841__1705 soc_can_tx_data_bus<48> soc_can_tx_data_bus<40> 
+ soc_uart_data_ready VDD! VSS n_141 / MUX2X1
Xg10842__5122 soc_can_tx_data_bus<52> soc_can_tx_data_bus<44> 
+ soc_uart_data_ready VDD! VSS n_140 / MUX2X1
Xg10843__8246 soc_can_tx_data_bus<0> soc_uart_rx_data_bus<0> 
+ soc_uart_data_ready VDD! VSS n_139 / MUX2X1
Xg10844__7098 soc_can_tx_data_bus<56> soc_can_tx_data_bus<48> 
+ soc_uart_data_ready VDD! VSS n_138 / MUX2X1
Xg10845__6131 soc_can_tx_data_bus<19> soc_can_tx_data_bus<11> 
+ soc_uart_data_ready VDD! VSS n_137 / MUX2X1
Xg10846__1881 soc_can_tx_data_bus<7> soc_uart_rx_data_bus<7> 
+ soc_uart_data_ready VDD! VSS n_136 / MUX2X1
Xg10847__5115 soc_can_tx_data_bus<18> soc_can_tx_data_bus<10> 
+ soc_uart_data_ready VDD! VSS n_135 / MUX2X1
Xg10848__7482 soc_can_tx_data_bus<8> soc_can_tx_data_bus<0> 
+ soc_uart_data_ready VDD! VSS n_134 / MUX2X1
Xg10849__4733 soc_can_tx_data_bus<4> soc_uart_rx_data_bus<4> 
+ soc_uart_data_ready VDD! VSS n_133 / MUX2X1
Xg10850__6161 soc_can_tx_data_bus<9> soc_can_tx_data_bus<1> 
+ soc_uart_data_ready VDD! VSS n_132 / MUX2X1
Xg10851__9315 soc_can_tx_data_bus<55> soc_can_tx_data_bus<47> 
+ soc_uart_data_ready VDD! VSS n_131 / MUX2X1
Xg10852__9945 soc_can_tx_data_bus<10> soc_can_tx_data_bus<2> 
+ soc_uart_data_ready VDD! VSS n_130 / MUX2X1
Xg10853__2883 soc_can_tx_data_bus<11> soc_can_tx_data_bus<3> 
+ soc_uart_data_ready VDD! VSS n_129 / MUX2X1
Xg10854__2346 soc_can_tx_data_bus<12> soc_can_tx_data_bus<4> 
+ soc_uart_data_ready VDD! VSS n_128 / MUX2X1
Xg10855__1666 soc_can_tx_data_bus<13> soc_can_tx_data_bus<5> 
+ soc_uart_data_ready VDD! VSS n_127 / MUX2X1
Xg10856__7410 soc_can_tx_data_bus<14> soc_can_tx_data_bus<6> 
+ soc_uart_data_ready VDD! VSS n_126 / MUX2X1
Xg10857__6417 soc_can_tx_data_bus<15> soc_can_tx_data_bus<7> 
+ soc_uart_data_ready VDD! VSS n_125 / MUX2X1
Xg10858__5477 soc_can_tx_data_bus<16> soc_can_tx_data_bus<8> 
+ soc_uart_data_ready VDD! VSS n_124 / MUX2X1
Xg10859__2398 soc_can_tx_data_bus<17> soc_can_tx_data_bus<9> 
+ soc_uart_data_ready VDD! VSS n_123 / MUX2X1
Xg10860__5107 soc_can_tx_inst_shift_reg<1> soc_can_tx_inst_shift_reg<2> 
+ soc_can_tx_inst_state<1> VDD! VSS n_122 / MUX2X1
Xg10861__6260 soc_can_tx_inst_shift_reg<3> soc_can_tx_inst_shift_reg<4> 
+ soc_can_tx_inst_state<1> VDD! VSS n_121 / MUX2X1
Xg10862__4319 soc_can_tx_inst_shift_reg<4> soc_can_tx_inst_shift_reg<5> 
+ soc_can_tx_inst_state<1> VDD! VSS n_120 / MUX2X1
Xg10863__8428 soc_uart_tx_data_Bus<7> soc_Can_rx_data_Bus<7> 
+ soc_can_data_ready VDD! VSS n_119 / MUX2X1
Xg10864__5526 soc_uart_tx_data_Bus<5> soc_Can_rx_data_Bus<5> 
+ soc_can_data_ready VDD! VSS n_118 / MUX2X1
Xg10865__6783 soc_uart_tx_data_Bus<1> soc_Can_rx_data_Bus<1> 
+ soc_can_data_ready VDD! VSS n_117 / MUX2X1
Xg10866__3680 soc_uart_tx_data_Bus<3> soc_Can_rx_data_Bus<3> 
+ soc_can_data_ready VDD! VSS n_116 / MUX2X1
Xg10867__1617 soc_uart_tx_data_Bus<2> soc_Can_rx_data_Bus<2> 
+ soc_can_data_ready VDD! VSS n_115 / MUX2X1
Xg10868__2802 soc_uart_tx_data_Bus<6> soc_Can_rx_data_Bus<6> 
+ soc_can_data_ready VDD! VSS n_114 / MUX2X1
Xg10869__1705 soc_uart_tx_data_Bus<0> soc_Can_rx_data_Bus<0> 
+ soc_can_data_ready VDD! VSS n_113 / MUX2X1
Xg10870__5122 soc_uart_tx_data_Bus<4> soc_Can_rx_data_Bus<4> 
+ soc_can_data_ready VDD! VSS n_112 / MUX2X1
Xg11072 n_842 n_577 soc_uart_rx_inst_bit_count<2> VDD! VSS n_843 / MUX2X1
Xg11075 n_847 n_744 soc_can_tx_inst_status_reg<5> VDD! VSS n_848 / MUX2X1
Xg11077 n_849 n_387 soc_can_tx_inst_status_reg<3> VDD! VSS n_850 / MUX2X1
Xg11079 n_851 n_338 soc_uart_rx_inst_bit_count<1> VDD! VSS n_852 / MUX2X1
Xg11081 n_853 n_294 soc_can_tx_inst_status_reg<1> VDD! VSS n_854 / MUX2X1